file 6486680 1592575055                                         
version 2
run Wireless01-0-20200619-15:55:42-29208
attr configname Wireless01
attr datetime 20200619-15:55:42
attr experiment Wireless01
attr inifile omnetpp.ini
attr iterationvars ""
attr iterationvarsf ""
attr measurement ""
attr network WirelessA
attr processid 29208
attr repetition 0
attr replication #0
attr resultdir results
attr runnumber 0
attr seedset 0
param *.T*.ipv4.arp.typename "\"GlobalArp\""
param *.Tserveur.numApps 1
param *.Tserveur.app[0].typename "\"UdpBasicApp\""
param *.Tserveur.app[0].destAddresses "\"Tclient Tclient1 Tclient2 Tclient3 Tclient4 Tclient5 Tclient6 Tclient7 Tclient8 Tclient9 Tclient10 Tclient11 Tclient12 Tclient13 Tclient14 Tclient15 Tclient16 Tclient17 Tclient18 Tclient19 Tclient20 Tclient21 Tclient22 Tclient23 Tclient24 Tclient25 Tclient26 Tclient27 Tclient28 Tclient29 Tclient30 Tclient31 Tclient32 Tclient33 Tclient34 Tclient35 Tclient36 Tclient37 Tclient38 Tclient39 Tclient40 Tclient41 Tclient42 Tclient43 Tclient44 Tclient45 Tclient46 Tclient47 Tclient48 Tclient49 Tclient50 Tclient51 Tclient52 Tclient53 Tclient54 Tclient55 Tclient56 Tclient57 Tclient58 Tclient59 Tclient60 Tclient61 Tclient62 Tclient63 Tclient64 Tclient65 Tclient66 Tclient67 Tclient68 Tclient69 Tclient70 Tclient71 Tclient72 Tclient73 Tclient74 Tclient75 Tclient76 Tclient77 Tclient78 Tclient79 Tclient80 Tclient81 Tclient82 Tclient83 Tclient84 Tclient85 Tclient86 Tclient87 Tclient88 Tclient89 Tclient90 Tclient91 Tclient92 Tclient93 Tclient94 Tclient95 Tclient96 Tclient97 Tclient98 Tclient99 Tclient100 Tclient101 Tclient102 Tclient103 Tclient104 Tclient105 Tclient106 Tclient107 Tclient108 Tclient109 Tclient110 Tclient111 Tclient112 Tclient113 Tclient114 Tclient115 Tclient116 Tclient117 Tclient118 Tclient119 Tclient120 Tclient121 Tclient122 Tclient123 Tclient124 Tclient125 Tclient126 Tclient127 Tclient128 Tclient129 Tclient130 Tclient131 Tclient132 Tclient133 Tclient134 Tclient135 Tclient136 Tclient137 Tclient138 Tclient139 Tclient140 Tclient141 Tclient142 Tclient143 Tclient144 Tclient145 Tclient146 Tclient147 Tclient148 Tclient149\""
param *.Tserveur.app[0].destPort 5000
param *.Tserveur.app[0].messageLength 1000B
param *.Tserveur.app[0].sendInterval exponential(12ms)
param *.Tserveur.app[0].packetName "\"UDPData\""
param *.Tserveur.wlan[0].radio.displayCommunicationRange true
param *.Tclient*.numApps 1
param *.Tclient*.app[0].typename "\"UdpSink\""
param *.Tclient*.app[0].localPort 5000
param *.T*.wlan[0].typename "\"AckingWirelessInterface\""
param *.T*.wlan[0].mac.useAck false
param *.T*.wlan[0].mac.fullDuplex false
param *.T*.wlan[0].radio.transmitter.communicationRange 3000m
param *.T*.wlan[0].radio.receiver.ignoreInterference true
param *.T*.wlan[0].mac.headerLength 23B
param *.visualizer.mediumVisualizer.displaySignals true
param *.visualizer.sceneVisualizer.descriptionFigure "\"title\""
param *.visualizer.physicalLinkVisualizer.displayLinks true
param *.visualizer.physicalLinkVisualizer.packetFilter "\"UDPData\""
param *.T*.**.bitrate 1Mbps

vector 0 WirelessA.Tserveur.wlan[0].radio radioMode:vector ETV
attr interpolationmode sample-hold
attr source radioModeChanged
attr title "Radio mode, vector"
vector 1 WirelessA.Tclient.wlan[0].radio radioMode:vector ETV
attr interpolationmode sample-hold
attr source radioModeChanged
attr title "Radio mode, vector"
vector 2 WirelessA.Tclient1.wlan[0].radio radioMode:vector ETV
attr interpolationmode sample-hold
attr source radioModeChanged
attr title "Radio mode, vector"
vector 3 WirelessA.Tclient2.wlan[0].radio radioMode:vector ETV
attr interpolationmode sample-hold
attr source radioModeChanged
attr title "Radio mode, vector"
vector 4 WirelessA.Tclient3.wlan[0].radio radioMode:vector ETV
attr interpolationmode sample-hold
attr source radioModeChanged
attr title "Radio mode, vector"
vector 5 WirelessA.Tclient4.wlan[0].radio radioMode:vector ETV
attr interpolationmode sample-hold
attr source radioModeChanged
attr title "Radio mode, vector"
vector 6 WirelessA.Tclient5.wlan[0].radio radioMode:vector ETV
attr interpolationmode sample-hold
attr source radioModeChanged
attr title "Radio mode, vector"
vector 7 WirelessA.Tclient6.wlan[0].radio radioMode:vector ETV
attr interpolationmode sample-hold
attr source radioModeChanged
attr title "Radio mode, vector"
vector 8 WirelessA.Tclient7.wlan[0].radio radioMode:vector ETV
attr interpolationmode sample-hold
attr source radioModeChanged
attr title "Radio mode, vector"
vector 9 WirelessA.Tclient8.wlan[0].radio radioMode:vector ETV
attr interpolationmode sample-hold
attr source radioModeChanged
attr title "Radio mode, vector"
vector 10 WirelessA.Tclient9.wlan[0].radio radioMode:vector ETV
attr interpolationmode sample-hold
attr source radioModeChanged
attr title "Radio mode, vector"
vector 11 WirelessA.Tclient10.wlan[0].radio radioMode:vector ETV
attr interpolationmode sample-hold
attr source radioModeChanged
attr title "Radio mode, vector"
vector 12 WirelessA.Tclient11.wlan[0].radio radioMode:vector ETV
attr interpolationmode sample-hold
attr source radioModeChanged
attr title "Radio mode, vector"
vector 13 WirelessA.Tclient12.wlan[0].radio radioMode:vector ETV
attr interpolationmode sample-hold
attr source radioModeChanged
attr title "Radio mode, vector"
vector 14 WirelessA.Tclient13.wlan[0].radio radioMode:vector ETV
attr interpolationmode sample-hold
attr source radioModeChanged
attr title "Radio mode, vector"
vector 15 WirelessA.Tclient14.wlan[0].radio radioMode:vector ETV
attr interpolationmode sample-hold
attr source radioModeChanged
attr title "Radio mode, vector"
vector 16 WirelessA.Tclient15.wlan[0].radio radioMode:vector ETV
attr interpolationmode sample-hold
attr source radioModeChanged
attr title "Radio mode, vector"
vector 17 WirelessA.Tclient16.wlan[0].radio radioMode:vector ETV
attr interpolationmode sample-hold
attr source radioModeChanged
attr title "Radio mode, vector"
vector 18 WirelessA.Tclient17.wlan[0].radio radioMode:vector ETV
attr interpolationmode sample-hold
attr source radioModeChanged
attr title "Radio mode, vector"
vector 19 WirelessA.Tclient18.wlan[0].radio radioMode:vector ETV
attr interpolationmode sample-hold
attr source radioModeChanged
attr title "Radio mode, vector"
vector 20 WirelessA.Tclient19.wlan[0].radio radioMode:vector ETV
attr interpolationmode sample-hold
attr source radioModeChanged
attr title "Radio mode, vector"
vector 21 WirelessA.Tclient20.wlan[0].radio radioMode:vector ETV
attr interpolationmode sample-hold
attr source radioModeChanged
attr title "Radio mode, vector"
vector 22 WirelessA.Tclient21.wlan[0].radio radioMode:vector ETV
attr interpolationmode sample-hold
attr source radioModeChanged
attr title "Radio mode, vector"
vector 23 WirelessA.Tclient22.wlan[0].radio radioMode:vector ETV
attr interpolationmode sample-hold
attr source radioModeChanged
attr title "Radio mode, vector"
vector 24 WirelessA.Tclient23.wlan[0].radio radioMode:vector ETV
attr interpolationmode sample-hold
attr source radioModeChanged
attr title "Radio mode, vector"
vector 25 WirelessA.Tclient24.wlan[0].radio radioMode:vector ETV
attr interpolationmode sample-hold
attr source radioModeChanged
attr title "Radio mode, vector"
vector 26 WirelessA.Tclient25.wlan[0].radio radioMode:vector ETV
attr interpolationmode sample-hold
attr source radioModeChanged
attr title "Radio mode, vector"
vector 27 WirelessA.Tclient26.wlan[0].radio radioMode:vector ETV
attr interpolationmode sample-hold
attr source radioModeChanged
attr title "Radio mode, vector"
vector 28 WirelessA.Tclient27.wlan[0].radio radioMode:vector ETV
attr interpolationmode sample-hold
attr source radioModeChanged
attr title "Radio mode, vector"
vector 29 WirelessA.Tclient28.wlan[0].radio radioMode:vector ETV
attr interpolationmode sample-hold
attr source radioModeChanged
attr title "Radio mode, vector"
vector 30 WirelessA.Tclient29.wlan[0].radio radioMode:vector ETV
attr interpolationmode sample-hold
attr source radioModeChanged
attr title "Radio mode, vector"
vector 31 WirelessA.Tclient30.wlan[0].radio radioMode:vector ETV
attr interpolationmode sample-hold
attr source radioModeChanged
attr title "Radio mode, vector"
vector 32 WirelessA.Tclient31.wlan[0].radio radioMode:vector ETV
attr interpolationmode sample-hold
attr source radioModeChanged
attr title "Radio mode, vector"
vector 33 WirelessA.Tclient32.wlan[0].radio radioMode:vector ETV
attr interpolationmode sample-hold
attr source radioModeChanged
attr title "Radio mode, vector"
vector 34 WirelessA.Tclient33.wlan[0].radio radioMode:vector ETV
attr interpolationmode sample-hold
attr source radioModeChanged
attr title "Radio mode, vector"
vector 35 WirelessA.Tclient34.wlan[0].radio radioMode:vector ETV
attr interpolationmode sample-hold
attr source radioModeChanged
attr title "Radio mode, vector"
vector 36 WirelessA.Tclient35.wlan[0].radio radioMode:vector ETV
attr interpolationmode sample-hold
attr source radioModeChanged
attr title "Radio mode, vector"
vector 37 WirelessA.Tclient36.wlan[0].radio radioMode:vector ETV
attr interpolationmode sample-hold
attr source radioModeChanged
attr title "Radio mode, vector"
vector 38 WirelessA.Tclient37.wlan[0].radio radioMode:vector ETV
attr interpolationmode sample-hold
attr source radioModeChanged
attr title "Radio mode, vector"
vector 39 WirelessA.Tclient38.wlan[0].radio radioMode:vector ETV
attr interpolationmode sample-hold
attr source radioModeChanged
attr title "Radio mode, vector"
vector 40 WirelessA.Tclient39.wlan[0].radio radioMode:vector ETV
attr interpolationmode sample-hold
attr source radioModeChanged
attr title "Radio mode, vector"
vector 41 WirelessA.Tclient40.wlan[0].radio radioMode:vector ETV
attr interpolationmode sample-hold
attr source radioModeChanged
attr title "Radio mode, vector"
vector 42 WirelessA.Tclient41.wlan[0].radio radioMode:vector ETV
attr interpolationmode sample-hold
attr source radioModeChanged
attr title "Radio mode, vector"
vector 43 WirelessA.Tclient42.wlan[0].radio radioMode:vector ETV
attr interpolationmode sample-hold
attr source radioModeChanged
attr title "Radio mode, vector"
vector 44 WirelessA.Tclient43.wlan[0].radio radioMode:vector ETV
attr interpolationmode sample-hold
attr source radioModeChanged
attr title "Radio mode, vector"
vector 45 WirelessA.Tclient44.wlan[0].radio radioMode:vector ETV
attr interpolationmode sample-hold
attr source radioModeChanged
attr title "Radio mode, vector"
vector 46 WirelessA.Tclient45.wlan[0].radio radioMode:vector ETV
attr interpolationmode sample-hold
attr source radioModeChanged
attr title "Radio mode, vector"
vector 47 WirelessA.Tclient46.wlan[0].radio radioMode:vector ETV
attr interpolationmode sample-hold
attr source radioModeChanged
attr title "Radio mode, vector"
vector 48 WirelessA.Tclient47.wlan[0].radio radioMode:vector ETV
attr interpolationmode sample-hold
attr source radioModeChanged
attr title "Radio mode, vector"
vector 49 WirelessA.Tclient48.wlan[0].radio radioMode:vector ETV
attr interpolationmode sample-hold
attr source radioModeChanged
attr title "Radio mode, vector"
vector 50 WirelessA.Tclient49.wlan[0].radio radioMode:vector ETV
attr interpolationmode sample-hold
attr source radioModeChanged
attr title "Radio mode, vector"
vector 51 WirelessA.Tclient50.wlan[0].radio radioMode:vector ETV
attr interpolationmode sample-hold
attr source radioModeChanged
attr title "Radio mode, vector"
vector 52 WirelessA.Tclient51.wlan[0].radio radioMode:vector ETV
attr interpolationmode sample-hold
attr source radioModeChanged
attr title "Radio mode, vector"
vector 53 WirelessA.Tclient52.wlan[0].radio radioMode:vector ETV
attr interpolationmode sample-hold
attr source radioModeChanged
attr title "Radio mode, vector"
vector 54 WirelessA.Tclient53.wlan[0].radio radioMode:vector ETV
attr interpolationmode sample-hold
attr source radioModeChanged
attr title "Radio mode, vector"
vector 55 WirelessA.Tclient54.wlan[0].radio radioMode:vector ETV
attr interpolationmode sample-hold
attr source radioModeChanged
attr title "Radio mode, vector"
vector 56 WirelessA.Tclient55.wlan[0].radio radioMode:vector ETV
attr interpolationmode sample-hold
attr source radioModeChanged
attr title "Radio mode, vector"
vector 57 WirelessA.Tclient56.wlan[0].radio radioMode:vector ETV
attr interpolationmode sample-hold
attr source radioModeChanged
attr title "Radio mode, vector"
vector 58 WirelessA.Tclient57.wlan[0].radio radioMode:vector ETV
attr interpolationmode sample-hold
attr source radioModeChanged
attr title "Radio mode, vector"
vector 59 WirelessA.Tclient58.wlan[0].radio radioMode:vector ETV
attr interpolationmode sample-hold
attr source radioModeChanged
attr title "Radio mode, vector"
vector 60 WirelessA.Tclient59.wlan[0].radio radioMode:vector ETV
attr interpolationmode sample-hold
attr source radioModeChanged
attr title "Radio mode, vector"
vector 61 WirelessA.Tclient60.wlan[0].radio radioMode:vector ETV
attr interpolationmode sample-hold
attr source radioModeChanged
attr title "Radio mode, vector"
vector 62 WirelessA.Tclient61.wlan[0].radio radioMode:vector ETV
attr interpolationmode sample-hold
attr source radioModeChanged
attr title "Radio mode, vector"
vector 63 WirelessA.Tclient62.wlan[0].radio radioMode:vector ETV
attr interpolationmode sample-hold
attr source radioModeChanged
attr title "Radio mode, vector"
vector 64 WirelessA.Tclient63.wlan[0].radio radioMode:vector ETV
attr interpolationmode sample-hold
attr source radioModeChanged
attr title "Radio mode, vector"
vector 65 WirelessA.Tclient64.wlan[0].radio radioMode:vector ETV
attr interpolationmode sample-hold
attr source radioModeChanged
attr title "Radio mode, vector"
vector 66 WirelessA.Tclient65.wlan[0].radio radioMode:vector ETV
attr interpolationmode sample-hold
attr source radioModeChanged
attr title "Radio mode, vector"
vector 67 WirelessA.Tclient66.wlan[0].radio radioMode:vector ETV
attr interpolationmode sample-hold
attr source radioModeChanged
attr title "Radio mode, vector"
vector 68 WirelessA.Tclient67.wlan[0].radio radioMode:vector ETV
attr interpolationmode sample-hold
attr source radioModeChanged
attr title "Radio mode, vector"
vector 69 WirelessA.Tclient68.wlan[0].radio radioMode:vector ETV
attr interpolationmode sample-hold
attr source radioModeChanged
attr title "Radio mode, vector"
vector 70 WirelessA.Tclient69.wlan[0].radio radioMode:vector ETV
attr interpolationmode sample-hold
attr source radioModeChanged
attr title "Radio mode, vector"
vector 71 WirelessA.Tclient70.wlan[0].radio radioMode:vector ETV
attr interpolationmode sample-hold
attr source radioModeChanged
attr title "Radio mode, vector"
vector 72 WirelessA.Tclient71.wlan[0].radio radioMode:vector ETV
attr interpolationmode sample-hold
attr source radioModeChanged
attr title "Radio mode, vector"
vector 73 WirelessA.Tclient72.wlan[0].radio radioMode:vector ETV
attr interpolationmode sample-hold
attr source radioModeChanged
attr title "Radio mode, vector"
vector 74 WirelessA.Tclient73.wlan[0].radio radioMode:vector ETV
attr interpolationmode sample-hold
attr source radioModeChanged
attr title "Radio mode, vector"
vector 75 WirelessA.Tclient74.wlan[0].radio radioMode:vector ETV
attr interpolationmode sample-hold
attr source radioModeChanged
attr title "Radio mode, vector"
vector 76 WirelessA.Tclient75.wlan[0].radio radioMode:vector ETV
attr interpolationmode sample-hold
attr source radioModeChanged
attr title "Radio mode, vector"
vector 77 WirelessA.Tclient76.wlan[0].radio radioMode:vector ETV
attr interpolationmode sample-hold
attr source radioModeChanged
attr title "Radio mode, vector"
vector 78 WirelessA.Tclient77.wlan[0].radio radioMode:vector ETV
attr interpolationmode sample-hold
attr source radioModeChanged
attr title "Radio mode, vector"
vector 79 WirelessA.Tclient78.wlan[0].radio radioMode:vector ETV
attr interpolationmode sample-hold
attr source radioModeChanged
attr title "Radio mode, vector"
vector 80 WirelessA.Tclient79.wlan[0].radio radioMode:vector ETV
attr interpolationmode sample-hold
attr source radioModeChanged
attr title "Radio mode, vector"
vector 81 WirelessA.Tclient80.wlan[0].radio radioMode:vector ETV
attr interpolationmode sample-hold
attr source radioModeChanged
attr title "Radio mode, vector"
vector 82 WirelessA.Tclient81.wlan[0].radio radioMode:vector ETV
attr interpolationmode sample-hold
attr source radioModeChanged
attr title "Radio mode, vector"
vector 83 WirelessA.Tclient82.wlan[0].radio radioMode:vector ETV
attr interpolationmode sample-hold
attr source radioModeChanged
attr title "Radio mode, vector"
vector 84 WirelessA.Tclient83.wlan[0].radio radioMode:vector ETV
attr interpolationmode sample-hold
attr source radioModeChanged
attr title "Radio mode, vector"
vector 85 WirelessA.Tclient84.wlan[0].radio radioMode:vector ETV
attr interpolationmode sample-hold
attr source radioModeChanged
attr title "Radio mode, vector"
vector 86 WirelessA.Tclient85.wlan[0].radio radioMode:vector ETV
attr interpolationmode sample-hold
attr source radioModeChanged
attr title "Radio mode, vector"
vector 87 WirelessA.Tclient86.wlan[0].radio radioMode:vector ETV
attr interpolationmode sample-hold
attr source radioModeChanged
attr title "Radio mode, vector"
vector 88 WirelessA.Tclient87.wlan[0].radio radioMode:vector ETV
attr interpolationmode sample-hold
attr source radioModeChanged
attr title "Radio mode, vector"
vector 89 WirelessA.Tclient88.wlan[0].radio radioMode:vector ETV
attr interpolationmode sample-hold
attr source radioModeChanged
attr title "Radio mode, vector"
vector 90 WirelessA.Tclient89.wlan[0].radio radioMode:vector ETV
attr interpolationmode sample-hold
attr source radioModeChanged
attr title "Radio mode, vector"
vector 91 WirelessA.Tclient90.wlan[0].radio radioMode:vector ETV
attr interpolationmode sample-hold
attr source radioModeChanged
attr title "Radio mode, vector"
vector 92 WirelessA.Tclient91.wlan[0].radio radioMode:vector ETV
attr interpolationmode sample-hold
attr source radioModeChanged
attr title "Radio mode, vector"
vector 93 WirelessA.Tclient92.wlan[0].radio radioMode:vector ETV
attr interpolationmode sample-hold
attr source radioModeChanged
attr title "Radio mode, vector"
vector 94 WirelessA.Tclient93.wlan[0].radio radioMode:vector ETV
attr interpolationmode sample-hold
attr source radioModeChanged
attr title "Radio mode, vector"
vector 95 WirelessA.Tclient94.wlan[0].radio radioMode:vector ETV
attr interpolationmode sample-hold
attr source radioModeChanged
attr title "Radio mode, vector"
vector 96 WirelessA.Tclient95.wlan[0].radio radioMode:vector ETV
attr interpolationmode sample-hold
attr source radioModeChanged
attr title "Radio mode, vector"
vector 97 WirelessA.Tclient96.wlan[0].radio radioMode:vector ETV
attr interpolationmode sample-hold
attr source radioModeChanged
attr title "Radio mode, vector"
vector 98 WirelessA.Tclient97.wlan[0].radio radioMode:vector ETV
attr interpolationmode sample-hold
attr source radioModeChanged
attr title "Radio mode, vector"
vector 99 WirelessA.Tclient98.wlan[0].radio radioMode:vector ETV
attr interpolationmode sample-hold
attr source radioModeChanged
attr title "Radio mode, vector"
vector 100 WirelessA.Tclient99.wlan[0].radio radioMode:vector ETV
attr interpolationmode sample-hold
attr source radioModeChanged
attr title "Radio mode, vector"
vector 101 WirelessA.Tclient100.wlan[0].radio radioMode:vector ETV
attr interpolationmode sample-hold
attr source radioModeChanged
attr title "Radio mode, vector"
vector 102 WirelessA.Tclient101.wlan[0].radio radioMode:vector ETV
attr interpolationmode sample-hold
attr source radioModeChanged
attr title "Radio mode, vector"
vector 103 WirelessA.Tclient102.wlan[0].radio radioMode:vector ETV
attr interpolationmode sample-hold
attr source radioModeChanged
attr title "Radio mode, vector"
vector 104 WirelessA.Tclient103.wlan[0].radio radioMode:vector ETV
attr interpolationmode sample-hold
attr source radioModeChanged
attr title "Radio mode, vector"
vector 105 WirelessA.Tclient104.wlan[0].radio radioMode:vector ETV
attr interpolationmode sample-hold
attr source radioModeChanged
attr title "Radio mode, vector"
vector 106 WirelessA.Tclient105.wlan[0].radio radioMode:vector ETV
attr interpolationmode sample-hold
attr source radioModeChanged
attr title "Radio mode, vector"
vector 107 WirelessA.Tclient106.wlan[0].radio radioMode:vector ETV
attr interpolationmode sample-hold
attr source radioModeChanged
attr title "Radio mode, vector"
vector 108 WirelessA.Tclient107.wlan[0].radio radioMode:vector ETV
attr interpolationmode sample-hold
attr source radioModeChanged
attr title "Radio mode, vector"
vector 109 WirelessA.Tclient108.wlan[0].radio radioMode:vector ETV
attr interpolationmode sample-hold
attr source radioModeChanged
attr title "Radio mode, vector"
vector 110 WirelessA.Tclient109.wlan[0].radio radioMode:vector ETV
attr interpolationmode sample-hold
attr source radioModeChanged
attr title "Radio mode, vector"
vector 111 WirelessA.Tclient110.wlan[0].radio radioMode:vector ETV
attr interpolationmode sample-hold
attr source radioModeChanged
attr title "Radio mode, vector"
vector 112 WirelessA.Tclient111.wlan[0].radio radioMode:vector ETV
attr interpolationmode sample-hold
attr source radioModeChanged
attr title "Radio mode, vector"
vector 113 WirelessA.Tclient112.wlan[0].radio radioMode:vector ETV
attr interpolationmode sample-hold
attr source radioModeChanged
attr title "Radio mode, vector"
vector 114 WirelessA.Tclient113.wlan[0].radio radioMode:vector ETV
attr interpolationmode sample-hold
attr source radioModeChanged
attr title "Radio mode, vector"
vector 115 WirelessA.Tclient114.wlan[0].radio radioMode:vector ETV
attr interpolationmode sample-hold
attr source radioModeChanged
attr title "Radio mode, vector"
vector 116 WirelessA.Tclient115.wlan[0].radio radioMode:vector ETV
attr interpolationmode sample-hold
attr source radioModeChanged
attr title "Radio mode, vector"
vector 117 WirelessA.Tclient116.wlan[0].radio radioMode:vector ETV
attr interpolationmode sample-hold
attr source radioModeChanged
attr title "Radio mode, vector"
vector 118 WirelessA.Tclient117.wlan[0].radio radioMode:vector ETV
attr interpolationmode sample-hold
attr source radioModeChanged
attr title "Radio mode, vector"
vector 119 WirelessA.Tclient118.wlan[0].radio radioMode:vector ETV
attr interpolationmode sample-hold
attr source radioModeChanged
attr title "Radio mode, vector"
vector 120 WirelessA.Tclient119.wlan[0].radio radioMode:vector ETV
attr interpolationmode sample-hold
attr source radioModeChanged
attr title "Radio mode, vector"
vector 121 WirelessA.Tclient120.wlan[0].radio radioMode:vector ETV
attr interpolationmode sample-hold
attr source radioModeChanged
attr title "Radio mode, vector"
vector 122 WirelessA.Tclient121.wlan[0].radio radioMode:vector ETV
attr interpolationmode sample-hold
attr source radioModeChanged
attr title "Radio mode, vector"
vector 123 WirelessA.Tclient122.wlan[0].radio radioMode:vector ETV
attr interpolationmode sample-hold
attr source radioModeChanged
attr title "Radio mode, vector"
vector 124 WirelessA.Tclient123.wlan[0].radio radioMode:vector ETV
attr interpolationmode sample-hold
attr source radioModeChanged
attr title "Radio mode, vector"
vector 125 WirelessA.Tclient124.wlan[0].radio radioMode:vector ETV
attr interpolationmode sample-hold
attr source radioModeChanged
attr title "Radio mode, vector"
vector 126 WirelessA.Tclient125.wlan[0].radio radioMode:vector ETV
attr interpolationmode sample-hold
attr source radioModeChanged
attr title "Radio mode, vector"
vector 127 WirelessA.Tclient126.wlan[0].radio radioMode:vector ETV
attr interpolationmode sample-hold
attr source radioModeChanged
attr title "Radio mode, vector"
vector 128 WirelessA.Tclient127.wlan[0].radio radioMode:vector ETV
attr interpolationmode sample-hold
attr source radioModeChanged
attr title "Radio mode, vector"
vector 129 WirelessA.Tclient128.wlan[0].radio radioMode:vector ETV
attr interpolationmode sample-hold
attr source radioModeChanged
attr title "Radio mode, vector"
vector 130 WirelessA.Tclient129.wlan[0].radio radioMode:vector ETV
attr interpolationmode sample-hold
attr source radioModeChanged
attr title "Radio mode, vector"
vector 131 WirelessA.Tclient130.wlan[0].radio radioMode:vector ETV
attr interpolationmode sample-hold
attr source radioModeChanged
attr title "Radio mode, vector"
vector 132 WirelessA.Tclient131.wlan[0].radio radioMode:vector ETV
attr interpolationmode sample-hold
attr source radioModeChanged
attr title "Radio mode, vector"
vector 133 WirelessA.Tclient132.wlan[0].radio radioMode:vector ETV
attr interpolationmode sample-hold
attr source radioModeChanged
attr title "Radio mode, vector"
vector 134 WirelessA.Tclient133.wlan[0].radio radioMode:vector ETV
attr interpolationmode sample-hold
attr source radioModeChanged
attr title "Radio mode, vector"
vector 135 WirelessA.Tclient134.wlan[0].radio radioMode:vector ETV
attr interpolationmode sample-hold
attr source radioModeChanged
attr title "Radio mode, vector"
vector 136 WirelessA.Tclient135.wlan[0].radio radioMode:vector ETV
attr interpolationmode sample-hold
attr source radioModeChanged
attr title "Radio mode, vector"
vector 137 WirelessA.Tclient136.wlan[0].radio radioMode:vector ETV
attr interpolationmode sample-hold
attr source radioModeChanged
attr title "Radio mode, vector"
vector 138 WirelessA.Tclient137.wlan[0].radio radioMode:vector ETV
attr interpolationmode sample-hold
attr source radioModeChanged
attr title "Radio mode, vector"
vector 139 WirelessA.Tclient138.wlan[0].radio radioMode:vector ETV
attr interpolationmode sample-hold
attr source radioModeChanged
attr title "Radio mode, vector"
vector 140 WirelessA.Tclient139.wlan[0].radio radioMode:vector ETV
attr interpolationmode sample-hold
attr source radioModeChanged
attr title "Radio mode, vector"
vector 141 WirelessA.Tclient140.wlan[0].radio radioMode:vector ETV
attr interpolationmode sample-hold
attr source radioModeChanged
attr title "Radio mode, vector"
vector 142 WirelessA.Tclient141.wlan[0].radio radioMode:vector ETV
attr interpolationmode sample-hold
attr source radioModeChanged
attr title "Radio mode, vector"
vector 143 WirelessA.Tclient142.wlan[0].radio radioMode:vector ETV
attr interpolationmode sample-hold
attr source radioModeChanged
attr title "Radio mode, vector"
vector 144 WirelessA.Tclient143.wlan[0].radio radioMode:vector ETV
attr interpolationmode sample-hold
attr source radioModeChanged
attr title "Radio mode, vector"
vector 145 WirelessA.Tclient144.wlan[0].radio radioMode:vector ETV
attr interpolationmode sample-hold
attr source radioModeChanged
attr title "Radio mode, vector"
vector 146 WirelessA.Tclient145.wlan[0].radio radioMode:vector ETV
attr interpolationmode sample-hold
attr source radioModeChanged
attr title "Radio mode, vector"
vector 147 WirelessA.Tclient146.wlan[0].radio radioMode:vector ETV
attr interpolationmode sample-hold
attr source radioModeChanged
attr title "Radio mode, vector"
vector 148 WirelessA.Tclient147.wlan[0].radio radioMode:vector ETV
attr interpolationmode sample-hold
attr source radioModeChanged
attr title "Radio mode, vector"
vector 149 WirelessA.Tclient148.wlan[0].radio radioMode:vector ETV
attr interpolationmode sample-hold
attr source radioModeChanged
attr title "Radio mode, vector"
vector 150 WirelessA.Tclient149.wlan[0].radio radioMode:vector ETV
attr interpolationmode sample-hold
attr source radioModeChanged
attr title "Radio mode, vector"
vector 151 WirelessA.Tserveur.wlan[0].radio receptionState:vector ETV
attr interpolationmode sample-hold
attr source receptionStateChanged
attr title "Radio reception state, vector"
vector 152 WirelessA.Tclient.wlan[0].radio receptionState:vector ETV
attr interpolationmode sample-hold
attr source receptionStateChanged
attr title "Radio reception state, vector"
vector 153 WirelessA.Tclient1.wlan[0].radio receptionState:vector ETV
attr interpolationmode sample-hold
attr source receptionStateChanged
attr title "Radio reception state, vector"
vector 154 WirelessA.Tclient2.wlan[0].radio receptionState:vector ETV
attr interpolationmode sample-hold
attr source receptionStateChanged
attr title "Radio reception state, vector"
vector 155 WirelessA.Tclient3.wlan[0].radio receptionState:vector ETV
attr interpolationmode sample-hold
attr source receptionStateChanged
attr title "Radio reception state, vector"
vector 156 WirelessA.Tclient4.wlan[0].radio receptionState:vector ETV
attr interpolationmode sample-hold
attr source receptionStateChanged
attr title "Radio reception state, vector"
vector 157 WirelessA.Tclient5.wlan[0].radio receptionState:vector ETV
attr interpolationmode sample-hold
attr source receptionStateChanged
attr title "Radio reception state, vector"
vector 158 WirelessA.Tclient6.wlan[0].radio receptionState:vector ETV
attr interpolationmode sample-hold
attr source receptionStateChanged
attr title "Radio reception state, vector"
vector 159 WirelessA.Tclient7.wlan[0].radio receptionState:vector ETV
attr interpolationmode sample-hold
attr source receptionStateChanged
attr title "Radio reception state, vector"
vector 160 WirelessA.Tclient8.wlan[0].radio receptionState:vector ETV
attr interpolationmode sample-hold
attr source receptionStateChanged
attr title "Radio reception state, vector"
vector 161 WirelessA.Tclient9.wlan[0].radio receptionState:vector ETV
attr interpolationmode sample-hold
attr source receptionStateChanged
attr title "Radio reception state, vector"
vector 162 WirelessA.Tclient10.wlan[0].radio receptionState:vector ETV
attr interpolationmode sample-hold
attr source receptionStateChanged
attr title "Radio reception state, vector"
vector 163 WirelessA.Tclient11.wlan[0].radio receptionState:vector ETV
attr interpolationmode sample-hold
attr source receptionStateChanged
attr title "Radio reception state, vector"
vector 164 WirelessA.Tclient12.wlan[0].radio receptionState:vector ETV
attr interpolationmode sample-hold
attr source receptionStateChanged
attr title "Radio reception state, vector"
vector 165 WirelessA.Tclient13.wlan[0].radio receptionState:vector ETV
attr interpolationmode sample-hold
attr source receptionStateChanged
attr title "Radio reception state, vector"
vector 166 WirelessA.Tclient14.wlan[0].radio receptionState:vector ETV
attr interpolationmode sample-hold
attr source receptionStateChanged
attr title "Radio reception state, vector"
vector 167 WirelessA.Tclient15.wlan[0].radio receptionState:vector ETV
attr interpolationmode sample-hold
attr source receptionStateChanged
attr title "Radio reception state, vector"
vector 168 WirelessA.Tclient16.wlan[0].radio receptionState:vector ETV
attr interpolationmode sample-hold
attr source receptionStateChanged
attr title "Radio reception state, vector"
vector 169 WirelessA.Tclient17.wlan[0].radio receptionState:vector ETV
attr interpolationmode sample-hold
attr source receptionStateChanged
attr title "Radio reception state, vector"
vector 170 WirelessA.Tclient18.wlan[0].radio receptionState:vector ETV
attr interpolationmode sample-hold
attr source receptionStateChanged
attr title "Radio reception state, vector"
vector 171 WirelessA.Tclient19.wlan[0].radio receptionState:vector ETV
attr interpolationmode sample-hold
attr source receptionStateChanged
attr title "Radio reception state, vector"
vector 172 WirelessA.Tclient20.wlan[0].radio receptionState:vector ETV
attr interpolationmode sample-hold
attr source receptionStateChanged
attr title "Radio reception state, vector"
vector 173 WirelessA.Tclient21.wlan[0].radio receptionState:vector ETV
attr interpolationmode sample-hold
attr source receptionStateChanged
attr title "Radio reception state, vector"
vector 174 WirelessA.Tclient22.wlan[0].radio receptionState:vector ETV
attr interpolationmode sample-hold
attr source receptionStateChanged
attr title "Radio reception state, vector"
vector 175 WirelessA.Tclient23.wlan[0].radio receptionState:vector ETV
attr interpolationmode sample-hold
attr source receptionStateChanged
attr title "Radio reception state, vector"
vector 176 WirelessA.Tclient24.wlan[0].radio receptionState:vector ETV
attr interpolationmode sample-hold
attr source receptionStateChanged
attr title "Radio reception state, vector"
vector 177 WirelessA.Tclient25.wlan[0].radio receptionState:vector ETV
attr interpolationmode sample-hold
attr source receptionStateChanged
attr title "Radio reception state, vector"
vector 178 WirelessA.Tclient26.wlan[0].radio receptionState:vector ETV
attr interpolationmode sample-hold
attr source receptionStateChanged
attr title "Radio reception state, vector"
vector 179 WirelessA.Tclient27.wlan[0].radio receptionState:vector ETV
attr interpolationmode sample-hold
attr source receptionStateChanged
attr title "Radio reception state, vector"
vector 180 WirelessA.Tclient28.wlan[0].radio receptionState:vector ETV
attr interpolationmode sample-hold
attr source receptionStateChanged
attr title "Radio reception state, vector"
vector 181 WirelessA.Tclient29.wlan[0].radio receptionState:vector ETV
attr interpolationmode sample-hold
attr source receptionStateChanged
attr title "Radio reception state, vector"
vector 182 WirelessA.Tclient30.wlan[0].radio receptionState:vector ETV
attr interpolationmode sample-hold
attr source receptionStateChanged
attr title "Radio reception state, vector"
vector 183 WirelessA.Tclient31.wlan[0].radio receptionState:vector ETV
attr interpolationmode sample-hold
attr source receptionStateChanged
attr title "Radio reception state, vector"
vector 184 WirelessA.Tclient32.wlan[0].radio receptionState:vector ETV
attr interpolationmode sample-hold
attr source receptionStateChanged
attr title "Radio reception state, vector"
vector 185 WirelessA.Tclient33.wlan[0].radio receptionState:vector ETV
attr interpolationmode sample-hold
attr source receptionStateChanged
attr title "Radio reception state, vector"
vector 186 WirelessA.Tclient34.wlan[0].radio receptionState:vector ETV
attr interpolationmode sample-hold
attr source receptionStateChanged
attr title "Radio reception state, vector"
vector 187 WirelessA.Tclient35.wlan[0].radio receptionState:vector ETV
attr interpolationmode sample-hold
attr source receptionStateChanged
attr title "Radio reception state, vector"
vector 188 WirelessA.Tclient36.wlan[0].radio receptionState:vector ETV
attr interpolationmode sample-hold
attr source receptionStateChanged
attr title "Radio reception state, vector"
vector 189 WirelessA.Tclient37.wlan[0].radio receptionState:vector ETV
attr interpolationmode sample-hold
attr source receptionStateChanged
attr title "Radio reception state, vector"
vector 190 WirelessA.Tclient38.wlan[0].radio receptionState:vector ETV
attr interpolationmode sample-hold
attr source receptionStateChanged
attr title "Radio reception state, vector"
vector 191 WirelessA.Tclient39.wlan[0].radio receptionState:vector ETV
attr interpolationmode sample-hold
attr source receptionStateChanged
attr title "Radio reception state, vector"
vector 192 WirelessA.Tclient40.wlan[0].radio receptionState:vector ETV
attr interpolationmode sample-hold
attr source receptionStateChanged
attr title "Radio reception state, vector"
vector 193 WirelessA.Tclient41.wlan[0].radio receptionState:vector ETV
attr interpolationmode sample-hold
attr source receptionStateChanged
attr title "Radio reception state, vector"
vector 194 WirelessA.Tclient42.wlan[0].radio receptionState:vector ETV
attr interpolationmode sample-hold
attr source receptionStateChanged
attr title "Radio reception state, vector"
vector 195 WirelessA.Tclient43.wlan[0].radio receptionState:vector ETV
attr interpolationmode sample-hold
attr source receptionStateChanged
attr title "Radio reception state, vector"
vector 196 WirelessA.Tclient44.wlan[0].radio receptionState:vector ETV
attr interpolationmode sample-hold
attr source receptionStateChanged
attr title "Radio reception state, vector"
vector 197 WirelessA.Tclient45.wlan[0].radio receptionState:vector ETV
attr interpolationmode sample-hold
attr source receptionStateChanged
attr title "Radio reception state, vector"
vector 198 WirelessA.Tclient46.wlan[0].radio receptionState:vector ETV
attr interpolationmode sample-hold
attr source receptionStateChanged
attr title "Radio reception state, vector"
vector 199 WirelessA.Tclient47.wlan[0].radio receptionState:vector ETV
attr interpolationmode sample-hold
attr source receptionStateChanged
attr title "Radio reception state, vector"
vector 200 WirelessA.Tclient48.wlan[0].radio receptionState:vector ETV
attr interpolationmode sample-hold
attr source receptionStateChanged
attr title "Radio reception state, vector"
vector 201 WirelessA.Tclient49.wlan[0].radio receptionState:vector ETV
attr interpolationmode sample-hold
attr source receptionStateChanged
attr title "Radio reception state, vector"
vector 202 WirelessA.Tclient50.wlan[0].radio receptionState:vector ETV
attr interpolationmode sample-hold
attr source receptionStateChanged
attr title "Radio reception state, vector"
vector 203 WirelessA.Tclient51.wlan[0].radio receptionState:vector ETV
attr interpolationmode sample-hold
attr source receptionStateChanged
attr title "Radio reception state, vector"
vector 204 WirelessA.Tclient52.wlan[0].radio receptionState:vector ETV
attr interpolationmode sample-hold
attr source receptionStateChanged
attr title "Radio reception state, vector"
vector 205 WirelessA.Tclient53.wlan[0].radio receptionState:vector ETV
attr interpolationmode sample-hold
attr source receptionStateChanged
attr title "Radio reception state, vector"
vector 206 WirelessA.Tclient54.wlan[0].radio receptionState:vector ETV
attr interpolationmode sample-hold
attr source receptionStateChanged
attr title "Radio reception state, vector"
vector 207 WirelessA.Tclient55.wlan[0].radio receptionState:vector ETV
attr interpolationmode sample-hold
attr source receptionStateChanged
attr title "Radio reception state, vector"
vector 208 WirelessA.Tclient56.wlan[0].radio receptionState:vector ETV
attr interpolationmode sample-hold
attr source receptionStateChanged
attr title "Radio reception state, vector"
vector 209 WirelessA.Tclient57.wlan[0].radio receptionState:vector ETV
attr interpolationmode sample-hold
attr source receptionStateChanged
attr title "Radio reception state, vector"
vector 210 WirelessA.Tclient58.wlan[0].radio receptionState:vector ETV
attr interpolationmode sample-hold
attr source receptionStateChanged
attr title "Radio reception state, vector"
vector 211 WirelessA.Tclient59.wlan[0].radio receptionState:vector ETV
attr interpolationmode sample-hold
attr source receptionStateChanged
attr title "Radio reception state, vector"
vector 212 WirelessA.Tclient60.wlan[0].radio receptionState:vector ETV
attr interpolationmode sample-hold
attr source receptionStateChanged
attr title "Radio reception state, vector"
vector 213 WirelessA.Tclient61.wlan[0].radio receptionState:vector ETV
attr interpolationmode sample-hold
attr source receptionStateChanged
attr title "Radio reception state, vector"
vector 214 WirelessA.Tclient62.wlan[0].radio receptionState:vector ETV
attr interpolationmode sample-hold
attr source receptionStateChanged
attr title "Radio reception state, vector"
vector 215 WirelessA.Tclient63.wlan[0].radio receptionState:vector ETV
attr interpolationmode sample-hold
attr source receptionStateChanged
attr title "Radio reception state, vector"
vector 216 WirelessA.Tclient64.wlan[0].radio receptionState:vector ETV
attr interpolationmode sample-hold
attr source receptionStateChanged
attr title "Radio reception state, vector"
vector 217 WirelessA.Tclient65.wlan[0].radio receptionState:vector ETV
attr interpolationmode sample-hold
attr source receptionStateChanged
attr title "Radio reception state, vector"
vector 218 WirelessA.Tclient66.wlan[0].radio receptionState:vector ETV
attr interpolationmode sample-hold
attr source receptionStateChanged
attr title "Radio reception state, vector"
vector 219 WirelessA.Tclient67.wlan[0].radio receptionState:vector ETV
attr interpolationmode sample-hold
attr source receptionStateChanged
attr title "Radio reception state, vector"
vector 220 WirelessA.Tclient68.wlan[0].radio receptionState:vector ETV
attr interpolationmode sample-hold
attr source receptionStateChanged
attr title "Radio reception state, vector"
vector 221 WirelessA.Tclient69.wlan[0].radio receptionState:vector ETV
attr interpolationmode sample-hold
attr source receptionStateChanged
attr title "Radio reception state, vector"
vector 222 WirelessA.Tclient70.wlan[0].radio receptionState:vector ETV
attr interpolationmode sample-hold
attr source receptionStateChanged
attr title "Radio reception state, vector"
vector 223 WirelessA.Tclient71.wlan[0].radio receptionState:vector ETV
attr interpolationmode sample-hold
attr source receptionStateChanged
attr title "Radio reception state, vector"
vector 224 WirelessA.Tclient72.wlan[0].radio receptionState:vector ETV
attr interpolationmode sample-hold
attr source receptionStateChanged
attr title "Radio reception state, vector"
vector 225 WirelessA.Tclient73.wlan[0].radio receptionState:vector ETV
attr interpolationmode sample-hold
attr source receptionStateChanged
attr title "Radio reception state, vector"
vector 226 WirelessA.Tclient74.wlan[0].radio receptionState:vector ETV
attr interpolationmode sample-hold
attr source receptionStateChanged
attr title "Radio reception state, vector"
vector 227 WirelessA.Tclient75.wlan[0].radio receptionState:vector ETV
attr interpolationmode sample-hold
attr source receptionStateChanged
attr title "Radio reception state, vector"
vector 228 WirelessA.Tclient76.wlan[0].radio receptionState:vector ETV
attr interpolationmode sample-hold
attr source receptionStateChanged
attr title "Radio reception state, vector"
vector 229 WirelessA.Tclient77.wlan[0].radio receptionState:vector ETV
attr interpolationmode sample-hold
attr source receptionStateChanged
attr title "Radio reception state, vector"
vector 230 WirelessA.Tclient78.wlan[0].radio receptionState:vector ETV
attr interpolationmode sample-hold
attr source receptionStateChanged
attr title "Radio reception state, vector"
vector 231 WirelessA.Tclient79.wlan[0].radio receptionState:vector ETV
attr interpolationmode sample-hold
attr source receptionStateChanged
attr title "Radio reception state, vector"
vector 232 WirelessA.Tclient80.wlan[0].radio receptionState:vector ETV
attr interpolationmode sample-hold
attr source receptionStateChanged
attr title "Radio reception state, vector"
vector 233 WirelessA.Tclient81.wlan[0].radio receptionState:vector ETV
attr interpolationmode sample-hold
attr source receptionStateChanged
attr title "Radio reception state, vector"
vector 234 WirelessA.Tclient82.wlan[0].radio receptionState:vector ETV
attr interpolationmode sample-hold
attr source receptionStateChanged
attr title "Radio reception state, vector"
vector 235 WirelessA.Tclient83.wlan[0].radio receptionState:vector ETV
attr interpolationmode sample-hold
attr source receptionStateChanged
attr title "Radio reception state, vector"
vector 236 WirelessA.Tclient84.wlan[0].radio receptionState:vector ETV
attr interpolationmode sample-hold
attr source receptionStateChanged
attr title "Radio reception state, vector"
vector 237 WirelessA.Tclient85.wlan[0].radio receptionState:vector ETV
attr interpolationmode sample-hold
attr source receptionStateChanged
attr title "Radio reception state, vector"
vector 238 WirelessA.Tclient86.wlan[0].radio receptionState:vector ETV
attr interpolationmode sample-hold
attr source receptionStateChanged
attr title "Radio reception state, vector"
vector 239 WirelessA.Tclient87.wlan[0].radio receptionState:vector ETV
attr interpolationmode sample-hold
attr source receptionStateChanged
attr title "Radio reception state, vector"
vector 240 WirelessA.Tclient88.wlan[0].radio receptionState:vector ETV
attr interpolationmode sample-hold
attr source receptionStateChanged
attr title "Radio reception state, vector"
vector 241 WirelessA.Tclient89.wlan[0].radio receptionState:vector ETV
attr interpolationmode sample-hold
attr source receptionStateChanged
attr title "Radio reception state, vector"
vector 242 WirelessA.Tclient90.wlan[0].radio receptionState:vector ETV
attr interpolationmode sample-hold
attr source receptionStateChanged
attr title "Radio reception state, vector"
vector 243 WirelessA.Tclient91.wlan[0].radio receptionState:vector ETV
attr interpolationmode sample-hold
attr source receptionStateChanged
attr title "Radio reception state, vector"
vector 244 WirelessA.Tclient92.wlan[0].radio receptionState:vector ETV
attr interpolationmode sample-hold
attr source receptionStateChanged
attr title "Radio reception state, vector"
vector 245 WirelessA.Tclient93.wlan[0].radio receptionState:vector ETV
attr interpolationmode sample-hold
attr source receptionStateChanged
attr title "Radio reception state, vector"
vector 246 WirelessA.Tclient94.wlan[0].radio receptionState:vector ETV
attr interpolationmode sample-hold
attr source receptionStateChanged
attr title "Radio reception state, vector"
vector 247 WirelessA.Tclient95.wlan[0].radio receptionState:vector ETV
attr interpolationmode sample-hold
attr source receptionStateChanged
attr title "Radio reception state, vector"
vector 248 WirelessA.Tclient96.wlan[0].radio receptionState:vector ETV
attr interpolationmode sample-hold
attr source receptionStateChanged
attr title "Radio reception state, vector"
vector 249 WirelessA.Tclient97.wlan[0].radio receptionState:vector ETV
attr interpolationmode sample-hold
attr source receptionStateChanged
attr title "Radio reception state, vector"
vector 250 WirelessA.Tclient98.wlan[0].radio receptionState:vector ETV
attr interpolationmode sample-hold
attr source receptionStateChanged
attr title "Radio reception state, vector"
vector 251 WirelessA.Tclient99.wlan[0].radio receptionState:vector ETV
attr interpolationmode sample-hold
attr source receptionStateChanged
attr title "Radio reception state, vector"
vector 252 WirelessA.Tclient100.wlan[0].radio receptionState:vector ETV
attr interpolationmode sample-hold
attr source receptionStateChanged
attr title "Radio reception state, vector"
vector 253 WirelessA.Tclient101.wlan[0].radio receptionState:vector ETV
attr interpolationmode sample-hold
attr source receptionStateChanged
attr title "Radio reception state, vector"
vector 254 WirelessA.Tclient102.wlan[0].radio receptionState:vector ETV
attr interpolationmode sample-hold
attr source receptionStateChanged
attr title "Radio reception state, vector"
vector 255 WirelessA.Tclient103.wlan[0].radio receptionState:vector ETV
attr interpolationmode sample-hold
attr source receptionStateChanged
attr title "Radio reception state, vector"
vector 256 WirelessA.Tclient104.wlan[0].radio receptionState:vector ETV
attr interpolationmode sample-hold
attr source receptionStateChanged
attr title "Radio reception state, vector"
vector 257 WirelessA.Tclient105.wlan[0].radio receptionState:vector ETV
attr interpolationmode sample-hold
attr source receptionStateChanged
attr title "Radio reception state, vector"
vector 258 WirelessA.Tclient106.wlan[0].radio receptionState:vector ETV
attr interpolationmode sample-hold
attr source receptionStateChanged
attr title "Radio reception state, vector"
vector 259 WirelessA.Tclient107.wlan[0].radio receptionState:vector ETV
attr interpolationmode sample-hold
attr source receptionStateChanged
attr title "Radio reception state, vector"
vector 260 WirelessA.Tclient108.wlan[0].radio receptionState:vector ETV
attr interpolationmode sample-hold
attr source receptionStateChanged
attr title "Radio reception state, vector"
vector 261 WirelessA.Tclient109.wlan[0].radio receptionState:vector ETV
attr interpolationmode sample-hold
attr source receptionStateChanged
attr title "Radio reception state, vector"
vector 262 WirelessA.Tclient110.wlan[0].radio receptionState:vector ETV
attr interpolationmode sample-hold
attr source receptionStateChanged
attr title "Radio reception state, vector"
vector 263 WirelessA.Tclient111.wlan[0].radio receptionState:vector ETV
attr interpolationmode sample-hold
attr source receptionStateChanged
attr title "Radio reception state, vector"
vector 264 WirelessA.Tclient112.wlan[0].radio receptionState:vector ETV
attr interpolationmode sample-hold
attr source receptionStateChanged
attr title "Radio reception state, vector"
vector 265 WirelessA.Tclient113.wlan[0].radio receptionState:vector ETV
attr interpolationmode sample-hold
attr source receptionStateChanged
attr title "Radio reception state, vector"
vector 266 WirelessA.Tclient114.wlan[0].radio receptionState:vector ETV
attr interpolationmode sample-hold
attr source receptionStateChanged
attr title "Radio reception state, vector"
vector 267 WirelessA.Tclient115.wlan[0].radio receptionState:vector ETV
attr interpolationmode sample-hold
attr source receptionStateChanged
attr title "Radio reception state, vector"
vector 268 WirelessA.Tclient116.wlan[0].radio receptionState:vector ETV
attr interpolationmode sample-hold
attr source receptionStateChanged
attr title "Radio reception state, vector"
vector 269 WirelessA.Tclient117.wlan[0].radio receptionState:vector ETV
attr interpolationmode sample-hold
attr source receptionStateChanged
attr title "Radio reception state, vector"
vector 270 WirelessA.Tclient118.wlan[0].radio receptionState:vector ETV
attr interpolationmode sample-hold
attr source receptionStateChanged
attr title "Radio reception state, vector"
vector 271 WirelessA.Tclient119.wlan[0].radio receptionState:vector ETV
attr interpolationmode sample-hold
attr source receptionStateChanged
attr title "Radio reception state, vector"
vector 272 WirelessA.Tclient120.wlan[0].radio receptionState:vector ETV
attr interpolationmode sample-hold
attr source receptionStateChanged
attr title "Radio reception state, vector"
vector 273 WirelessA.Tclient121.wlan[0].radio receptionState:vector ETV
attr interpolationmode sample-hold
attr source receptionStateChanged
attr title "Radio reception state, vector"
vector 274 WirelessA.Tclient122.wlan[0].radio receptionState:vector ETV
attr interpolationmode sample-hold
attr source receptionStateChanged
attr title "Radio reception state, vector"
vector 275 WirelessA.Tclient123.wlan[0].radio receptionState:vector ETV
attr interpolationmode sample-hold
attr source receptionStateChanged
attr title "Radio reception state, vector"
vector 276 WirelessA.Tclient124.wlan[0].radio receptionState:vector ETV
attr interpolationmode sample-hold
attr source receptionStateChanged
attr title "Radio reception state, vector"
vector 277 WirelessA.Tclient125.wlan[0].radio receptionState:vector ETV
attr interpolationmode sample-hold
attr source receptionStateChanged
attr title "Radio reception state, vector"
vector 278 WirelessA.Tclient126.wlan[0].radio receptionState:vector ETV
attr interpolationmode sample-hold
attr source receptionStateChanged
attr title "Radio reception state, vector"
vector 279 WirelessA.Tclient127.wlan[0].radio receptionState:vector ETV
attr interpolationmode sample-hold
attr source receptionStateChanged
attr title "Radio reception state, vector"
vector 280 WirelessA.Tclient128.wlan[0].radio receptionState:vector ETV
attr interpolationmode sample-hold
attr source receptionStateChanged
attr title "Radio reception state, vector"
vector 281 WirelessA.Tclient129.wlan[0].radio receptionState:vector ETV
attr interpolationmode sample-hold
attr source receptionStateChanged
attr title "Radio reception state, vector"
vector 282 WirelessA.Tclient130.wlan[0].radio receptionState:vector ETV
attr interpolationmode sample-hold
attr source receptionStateChanged
attr title "Radio reception state, vector"
vector 283 WirelessA.Tclient131.wlan[0].radio receptionState:vector ETV
attr interpolationmode sample-hold
attr source receptionStateChanged
attr title "Radio reception state, vector"
vector 284 WirelessA.Tclient132.wlan[0].radio receptionState:vector ETV
attr interpolationmode sample-hold
attr source receptionStateChanged
attr title "Radio reception state, vector"
vector 285 WirelessA.Tclient133.wlan[0].radio receptionState:vector ETV
attr interpolationmode sample-hold
attr source receptionStateChanged
attr title "Radio reception state, vector"
vector 286 WirelessA.Tclient134.wlan[0].radio receptionState:vector ETV
attr interpolationmode sample-hold
attr source receptionStateChanged
attr title "Radio reception state, vector"
vector 287 WirelessA.Tclient135.wlan[0].radio receptionState:vector ETV
attr interpolationmode sample-hold
attr source receptionStateChanged
attr title "Radio reception state, vector"
vector 288 WirelessA.Tclient136.wlan[0].radio receptionState:vector ETV
attr interpolationmode sample-hold
attr source receptionStateChanged
attr title "Radio reception state, vector"
vector 289 WirelessA.Tclient137.wlan[0].radio receptionState:vector ETV
attr interpolationmode sample-hold
attr source receptionStateChanged
attr title "Radio reception state, vector"
vector 290 WirelessA.Tclient138.wlan[0].radio receptionState:vector ETV
attr interpolationmode sample-hold
attr source receptionStateChanged
attr title "Radio reception state, vector"
vector 291 WirelessA.Tclient139.wlan[0].radio receptionState:vector ETV
attr interpolationmode sample-hold
attr source receptionStateChanged
attr title "Radio reception state, vector"
vector 292 WirelessA.Tclient140.wlan[0].radio receptionState:vector ETV
attr interpolationmode sample-hold
attr source receptionStateChanged
attr title "Radio reception state, vector"
vector 293 WirelessA.Tclient141.wlan[0].radio receptionState:vector ETV
attr interpolationmode sample-hold
attr source receptionStateChanged
attr title "Radio reception state, vector"
vector 294 WirelessA.Tclient142.wlan[0].radio receptionState:vector ETV
attr interpolationmode sample-hold
attr source receptionStateChanged
attr title "Radio reception state, vector"
vector 295 WirelessA.Tclient143.wlan[0].radio receptionState:vector ETV
attr interpolationmode sample-hold
attr source receptionStateChanged
attr title "Radio reception state, vector"
vector 296 WirelessA.Tclient144.wlan[0].radio receptionState:vector ETV
attr interpolationmode sample-hold
attr source receptionStateChanged
attr title "Radio reception state, vector"
vector 297 WirelessA.Tclient145.wlan[0].radio receptionState:vector ETV
attr interpolationmode sample-hold
attr source receptionStateChanged
attr title "Radio reception state, vector"
vector 298 WirelessA.Tclient146.wlan[0].radio receptionState:vector ETV
attr interpolationmode sample-hold
attr source receptionStateChanged
attr title "Radio reception state, vector"
vector 299 WirelessA.Tclient147.wlan[0].radio receptionState:vector ETV
attr interpolationmode sample-hold
attr source receptionStateChanged
attr title "Radio reception state, vector"
vector 300 WirelessA.Tclient148.wlan[0].radio receptionState:vector ETV
attr interpolationmode sample-hold
attr source receptionStateChanged
attr title "Radio reception state, vector"
vector 301 WirelessA.Tclient149.wlan[0].radio receptionState:vector ETV
attr interpolationmode sample-hold
attr source receptionStateChanged
attr title "Radio reception state, vector"
vector 302 WirelessA.Tserveur.app[0] packetSent:vector(packetBytes) ETV
attr interpolationmode none
attr source packetSent
attr title "packets sent, vector(packetBytes)"
vector 303 WirelessA.Tserveur.udp packetSent:vector(packetBytes) ETV
attr interpolationmode none
attr source packetSent
attr title "packets sent, vector(packetBytes)"
vector 304 WirelessA.Tserveur.wlan[0].mac rcvdPkFromHl:vector(packetBytes) ETV
attr interpolationmode none
attr source packetReceivedFromUpper
attr title "packets received from higher layer, vector(packetBytes)"
vector 305 WirelessA.Tserveur.wlan[0].mac.queue packetPushed:vector(packetBytes) ETV
attr interpolationmode none
attr title "packet pushed, vector(packetBytes)"
vector 306 WirelessA.Tserveur.wlan[0].mac.queue queueLength:vector ETV
attr interpolationmode sample-hold
attr source "count(packetPushed) - count(packetPopped) - count(packetRemoved) - count(packetDropped)"
attr title "queue length, vector"
vector 307 WirelessA.Tserveur.wlan[0].mac.queue packetPopped:vector(packetBytes) ETV
attr interpolationmode none
attr title "packet popped, vector(packetBytes)"
vector 308 WirelessA.Tserveur.wlan[0].mac.queue queueingTime:vector ETV
attr interpolationmode none
attr source queueingTime(packetPopped)
attr title "queueing times, vector"
attr unit s
vector 309 WirelessA.Tserveur.wlan[0].radio transmissionState:vector ETV
attr interpolationmode sample-hold
attr source transmissionStateChanged
attr title "Radio transmission state, vector"
vector 310 WirelessA.Tserveur.wlan[0].mac sentDownPk:vector(packetBytes) ETV
attr interpolationmode none
attr source packetSentToLower
attr title "packets sent to lower layer, vector(packetBytes)"
vector 311 WirelessA.Tclient75.wlan[0].mac rcvdPkFromLl:vector(packetBytes) ETV
attr interpolationmode none
attr source packetReceivedFromLower
attr title "packets received from lower layer, vector(packetBytes)"
vector 312 WirelessA.Tclient75.wlan[0].mac packetDropNotAddressedToUs:vector(packetBytes) ETV
attr interpolationmode none
attr source packetDropReasonIsNotAddressedToUs(packetDropped)
attr title "packet drop: not addressed to us, vector(packetBytes)"
vector 313 WirelessA.Tclient32.wlan[0].mac rcvdPkFromLl:vector(packetBytes) ETV
attr interpolationmode none
attr source packetReceivedFromLower
attr title "packets received from lower layer, vector(packetBytes)"
vector 314 WirelessA.Tclient32.wlan[0].mac packetDropNotAddressedToUs:vector(packetBytes) ETV
attr interpolationmode none
attr source packetDropReasonIsNotAddressedToUs(packetDropped)
attr title "packet drop: not addressed to us, vector(packetBytes)"
vector 315 WirelessA.Tclient72.wlan[0].mac rcvdPkFromLl:vector(packetBytes) ETV
attr interpolationmode none
attr source packetReceivedFromLower
attr title "packets received from lower layer, vector(packetBytes)"
vector 316 WirelessA.Tclient72.wlan[0].mac packetDropNotAddressedToUs:vector(packetBytes) ETV
attr interpolationmode none
attr source packetDropReasonIsNotAddressedToUs(packetDropped)
attr title "packet drop: not addressed to us, vector(packetBytes)"
vector 317 WirelessA.Tclient2.wlan[0].mac rcvdPkFromLl:vector(packetBytes) ETV
attr interpolationmode none
attr source packetReceivedFromLower
attr title "packets received from lower layer, vector(packetBytes)"
vector 318 WirelessA.Tclient2.wlan[0].mac packetDropNotAddressedToUs:vector(packetBytes) ETV
attr interpolationmode none
attr source packetDropReasonIsNotAddressedToUs(packetDropped)
attr title "packet drop: not addressed to us, vector(packetBytes)"
vector 319 WirelessA.Tclient38.wlan[0].mac rcvdPkFromLl:vector(packetBytes) ETV
attr interpolationmode none
attr source packetReceivedFromLower
attr title "packets received from lower layer, vector(packetBytes)"
vector 320 WirelessA.Tclient38.wlan[0].mac packetDropNotAddressedToUs:vector(packetBytes) ETV
attr interpolationmode none
attr source packetDropReasonIsNotAddressedToUs(packetDropped)
attr title "packet drop: not addressed to us, vector(packetBytes)"
vector 321 WirelessA.Tclient94.wlan[0].mac rcvdPkFromLl:vector(packetBytes) ETV
attr interpolationmode none
attr source packetReceivedFromLower
attr title "packets received from lower layer, vector(packetBytes)"
vector 322 WirelessA.Tclient94.wlan[0].mac packetDropNotAddressedToUs:vector(packetBytes) ETV
attr interpolationmode none
attr source packetDropReasonIsNotAddressedToUs(packetDropped)
attr title "packet drop: not addressed to us, vector(packetBytes)"
vector 323 WirelessA.Tclient82.wlan[0].mac rcvdPkFromLl:vector(packetBytes) ETV
attr interpolationmode none
attr source packetReceivedFromLower
attr title "packets received from lower layer, vector(packetBytes)"
vector 324 WirelessA.Tclient82.wlan[0].mac packetDropNotAddressedToUs:vector(packetBytes) ETV
attr interpolationmode none
attr source packetDropReasonIsNotAddressedToUs(packetDropped)
attr title "packet drop: not addressed to us, vector(packetBytes)"
vector 325 WirelessA.Tclient28.wlan[0].mac rcvdPkFromLl:vector(packetBytes) ETV
attr interpolationmode none
attr source packetReceivedFromLower
attr title "packets received from lower layer, vector(packetBytes)"
vector 326 WirelessA.Tclient28.wlan[0].mac packetDropNotAddressedToUs:vector(packetBytes) ETV
attr interpolationmode none
attr source packetDropReasonIsNotAddressedToUs(packetDropped)
attr title "packet drop: not addressed to us, vector(packetBytes)"
vector 327 WirelessA.Tclient41.wlan[0].mac rcvdPkFromLl:vector(packetBytes) ETV
attr interpolationmode none
attr source packetReceivedFromLower
attr title "packets received from lower layer, vector(packetBytes)"
vector 328 WirelessA.Tclient41.wlan[0].mac packetDropNotAddressedToUs:vector(packetBytes) ETV
attr interpolationmode none
attr source packetDropReasonIsNotAddressedToUs(packetDropped)
attr title "packet drop: not addressed to us, vector(packetBytes)"
vector 329 WirelessA.Tclient30.wlan[0].mac rcvdPkFromLl:vector(packetBytes) ETV
attr interpolationmode none
attr source packetReceivedFromLower
attr title "packets received from lower layer, vector(packetBytes)"
vector 330 WirelessA.Tclient30.wlan[0].mac packetDropNotAddressedToUs:vector(packetBytes) ETV
attr interpolationmode none
attr source packetDropReasonIsNotAddressedToUs(packetDropped)
attr title "packet drop: not addressed to us, vector(packetBytes)"
vector 331 WirelessA.Tclient71.wlan[0].mac rcvdPkFromLl:vector(packetBytes) ETV
attr interpolationmode none
attr source packetReceivedFromLower
attr title "packets received from lower layer, vector(packetBytes)"
vector 332 WirelessA.Tclient71.wlan[0].mac packetDropNotAddressedToUs:vector(packetBytes) ETV
attr interpolationmode none
attr source packetDropReasonIsNotAddressedToUs(packetDropped)
attr title "packet drop: not addressed to us, vector(packetBytes)"
vector 333 WirelessA.Tclient44.wlan[0].mac rcvdPkFromLl:vector(packetBytes) ETV
attr interpolationmode none
attr source packetReceivedFromLower
attr title "packets received from lower layer, vector(packetBytes)"
vector 334 WirelessA.Tclient44.wlan[0].mac packetDropNotAddressedToUs:vector(packetBytes) ETV
attr interpolationmode none
attr source packetDropReasonIsNotAddressedToUs(packetDropped)
attr title "packet drop: not addressed to us, vector(packetBytes)"
vector 335 WirelessA.Tclient31.wlan[0].mac rcvdPkFromLl:vector(packetBytes) ETV
attr interpolationmode none
attr source packetReceivedFromLower
attr title "packets received from lower layer, vector(packetBytes)"
vector 336 WirelessA.Tclient31.wlan[0].mac packetDropNotAddressedToUs:vector(packetBytes) ETV
attr interpolationmode none
attr source packetDropReasonIsNotAddressedToUs(packetDropped)
attr title "packet drop: not addressed to us, vector(packetBytes)"
vector 337 WirelessA.Tclient7.wlan[0].mac rcvdPkFromLl:vector(packetBytes) ETV
attr interpolationmode none
attr source packetReceivedFromLower
attr title "packets received from lower layer, vector(packetBytes)"
vector 338 WirelessA.Tclient7.wlan[0].mac packetDropNotAddressedToUs:vector(packetBytes) ETV
attr interpolationmode none
attr source packetDropReasonIsNotAddressedToUs(packetDropped)
attr title "packet drop: not addressed to us, vector(packetBytes)"
vector 339 WirelessA.Tclient81.wlan[0].mac rcvdPkFromLl:vector(packetBytes) ETV
attr interpolationmode none
attr source packetReceivedFromLower
attr title "packets received from lower layer, vector(packetBytes)"
vector 340 WirelessA.Tclient81.wlan[0].mac packetDropNotAddressedToUs:vector(packetBytes) ETV
attr interpolationmode none
attr source packetDropReasonIsNotAddressedToUs(packetDropped)
attr title "packet drop: not addressed to us, vector(packetBytes)"
vector 341 WirelessA.Tclient4.wlan[0].mac rcvdPkFromLl:vector(packetBytes) ETV
attr interpolationmode none
attr source packetReceivedFromLower
attr title "packets received from lower layer, vector(packetBytes)"
vector 342 WirelessA.Tclient4.wlan[0].mac packetDropNotAddressedToUs:vector(packetBytes) ETV
attr interpolationmode none
attr source packetDropReasonIsNotAddressedToUs(packetDropped)
attr title "packet drop: not addressed to us, vector(packetBytes)"
vector 343 WirelessA.Tclient8.wlan[0].mac rcvdPkFromLl:vector(packetBytes) ETV
attr interpolationmode none
attr source packetReceivedFromLower
attr title "packets received from lower layer, vector(packetBytes)"
vector 344 WirelessA.Tclient8.wlan[0].mac packetDropNotAddressedToUs:vector(packetBytes) ETV
attr interpolationmode none
attr source packetDropReasonIsNotAddressedToUs(packetDropped)
attr title "packet drop: not addressed to us, vector(packetBytes)"
vector 345 WirelessA.Tclient29.wlan[0].mac rcvdPkFromLl:vector(packetBytes) ETV
attr interpolationmode none
attr source packetReceivedFromLower
attr title "packets received from lower layer, vector(packetBytes)"
vector 346 WirelessA.Tclient29.wlan[0].mac packetDropNotAddressedToUs:vector(packetBytes) ETV
attr interpolationmode none
attr source packetDropReasonIsNotAddressedToUs(packetDropped)
attr title "packet drop: not addressed to us, vector(packetBytes)"
vector 347 WirelessA.Tclient9.wlan[0].mac rcvdPkFromLl:vector(packetBytes) ETV
attr interpolationmode none
attr source packetReceivedFromLower
attr title "packets received from lower layer, vector(packetBytes)"
vector 348 WirelessA.Tclient9.wlan[0].mac packetDropNotAddressedToUs:vector(packetBytes) ETV
attr interpolationmode none
attr source packetDropReasonIsNotAddressedToUs(packetDropped)
attr title "packet drop: not addressed to us, vector(packetBytes)"
vector 349 WirelessA.Tclient24.wlan[0].mac rcvdPkFromLl:vector(packetBytes) ETV
attr interpolationmode none
attr source packetReceivedFromLower
attr title "packets received from lower layer, vector(packetBytes)"
vector 350 WirelessA.Tclient24.wlan[0].mac packetDropNotAddressedToUs:vector(packetBytes) ETV
attr interpolationmode none
attr source packetDropReasonIsNotAddressedToUs(packetDropped)
attr title "packet drop: not addressed to us, vector(packetBytes)"
vector 351 WirelessA.Tclient27.wlan[0].mac rcvdPkFromLl:vector(packetBytes) ETV
attr interpolationmode none
attr source packetReceivedFromLower
attr title "packets received from lower layer, vector(packetBytes)"
vector 352 WirelessA.Tclient27.wlan[0].mac packetDropNotAddressedToUs:vector(packetBytes) ETV
attr interpolationmode none
attr source packetDropReasonIsNotAddressedToUs(packetDropped)
attr title "packet drop: not addressed to us, vector(packetBytes)"
vector 353 WirelessA.Tclient45.wlan[0].mac rcvdPkFromLl:vector(packetBytes) ETV
attr interpolationmode none
attr source packetReceivedFromLower
attr title "packets received from lower layer, vector(packetBytes)"
vector 354 WirelessA.Tclient45.wlan[0].mac packetDropNotAddressedToUs:vector(packetBytes) ETV
attr interpolationmode none
attr source packetDropReasonIsNotAddressedToUs(packetDropped)
attr title "packet drop: not addressed to us, vector(packetBytes)"
vector 355 WirelessA.Tclient6.wlan[0].mac rcvdPkFromLl:vector(packetBytes) ETV
attr interpolationmode none
attr source packetReceivedFromLower
attr title "packets received from lower layer, vector(packetBytes)"
vector 356 WirelessA.Tclient6.wlan[0].mac packetDropNotAddressedToUs:vector(packetBytes) ETV
attr interpolationmode none
attr source packetDropReasonIsNotAddressedToUs(packetDropped)
attr title "packet drop: not addressed to us, vector(packetBytes)"
vector 357 WirelessA.Tclient35.wlan[0].mac rcvdPkFromLl:vector(packetBytes) ETV
attr interpolationmode none
attr source packetReceivedFromLower
attr title "packets received from lower layer, vector(packetBytes)"
vector 358 WirelessA.Tclient35.wlan[0].mac packetDropNotAddressedToUs:vector(packetBytes) ETV
attr interpolationmode none
attr source packetDropReasonIsNotAddressedToUs(packetDropped)
attr title "packet drop: not addressed to us, vector(packetBytes)"
vector 359 WirelessA.Tclient78.wlan[0].mac rcvdPkFromLl:vector(packetBytes) ETV
attr interpolationmode none
attr source packetReceivedFromLower
attr title "packets received from lower layer, vector(packetBytes)"
vector 360 WirelessA.Tclient78.wlan[0].mac packetDropNotAddressedToUs:vector(packetBytes) ETV
attr interpolationmode none
attr source packetDropReasonIsNotAddressedToUs(packetDropped)
attr title "packet drop: not addressed to us, vector(packetBytes)"
vector 361 WirelessA.Tclient5.wlan[0].mac rcvdPkFromLl:vector(packetBytes) ETV
attr interpolationmode none
attr source packetReceivedFromLower
attr title "packets received from lower layer, vector(packetBytes)"
vector 362 WirelessA.Tclient5.wlan[0].mac packetDropNotAddressedToUs:vector(packetBytes) ETV
attr interpolationmode none
attr source packetDropReasonIsNotAddressedToUs(packetDropped)
attr title "packet drop: not addressed to us, vector(packetBytes)"
vector 363 WirelessA.Tclient91.wlan[0].mac rcvdPkFromLl:vector(packetBytes) ETV
attr interpolationmode none
attr source packetReceivedFromLower
attr title "packets received from lower layer, vector(packetBytes)"
vector 364 WirelessA.Tclient91.wlan[0].mac packetDropNotAddressedToUs:vector(packetBytes) ETV
attr interpolationmode none
attr source packetDropReasonIsNotAddressedToUs(packetDropped)
attr title "packet drop: not addressed to us, vector(packetBytes)"
vector 365 WirelessA.Tclient76.wlan[0].mac rcvdPkFromLl:vector(packetBytes) ETV
attr interpolationmode none
attr source packetReceivedFromLower
attr title "packets received from lower layer, vector(packetBytes)"
vector 366 WirelessA.Tclient76.wlan[0].mac packetDropNotAddressedToUs:vector(packetBytes) ETV
attr interpolationmode none
attr source packetDropReasonIsNotAddressedToUs(packetDropped)
attr title "packet drop: not addressed to us, vector(packetBytes)"
vector 367 WirelessA.Tclient36.wlan[0].mac rcvdPkFromLl:vector(packetBytes) ETV
attr interpolationmode none
attr source packetReceivedFromLower
attr title "packets received from lower layer, vector(packetBytes)"
vector 368 WirelessA.Tclient36.wlan[0].mac packetDropNotAddressedToUs:vector(packetBytes) ETV
attr interpolationmode none
attr source packetDropReasonIsNotAddressedToUs(packetDropped)
attr title "packet drop: not addressed to us, vector(packetBytes)"
vector 369 WirelessA.Tclient3.wlan[0].mac rcvdPkFromLl:vector(packetBytes) ETV
attr interpolationmode none
attr source packetReceivedFromLower
attr title "packets received from lower layer, vector(packetBytes)"
vector 370 WirelessA.Tclient3.wlan[0].mac packetDropNotAddressedToUs:vector(packetBytes) ETV
attr interpolationmode none
attr source packetDropReasonIsNotAddressedToUs(packetDropped)
attr title "packet drop: not addressed to us, vector(packetBytes)"
vector 371 WirelessA.Tclient1.wlan[0].mac rcvdPkFromLl:vector(packetBytes) ETV
attr interpolationmode none
attr source packetReceivedFromLower
attr title "packets received from lower layer, vector(packetBytes)"
vector 372 WirelessA.Tclient1.wlan[0].mac packetDropNotAddressedToUs:vector(packetBytes) ETV
attr interpolationmode none
attr source packetDropReasonIsNotAddressedToUs(packetDropped)
attr title "packet drop: not addressed to us, vector(packetBytes)"
vector 373 WirelessA.Tclient77.wlan[0].mac rcvdPkFromLl:vector(packetBytes) ETV
attr interpolationmode none
attr source packetReceivedFromLower
attr title "packets received from lower layer, vector(packetBytes)"
vector 374 WirelessA.Tclient77.wlan[0].mac packetDropNotAddressedToUs:vector(packetBytes) ETV
attr interpolationmode none
attr source packetDropReasonIsNotAddressedToUs(packetDropped)
attr title "packet drop: not addressed to us, vector(packetBytes)"
vector 375 WirelessA.Tclient11.wlan[0].mac rcvdPkFromLl:vector(packetBytes) ETV
attr interpolationmode none
attr source packetReceivedFromLower
attr title "packets received from lower layer, vector(packetBytes)"
vector 376 WirelessA.Tclient11.wlan[0].mac packetDropNotAddressedToUs:vector(packetBytes) ETV
attr interpolationmode none
attr source packetDropReasonIsNotAddressedToUs(packetDropped)
attr title "packet drop: not addressed to us, vector(packetBytes)"
vector 377 WirelessA.Tclient68.wlan[0].mac rcvdPkFromLl:vector(packetBytes) ETV
attr interpolationmode none
attr source packetReceivedFromLower
attr title "packets received from lower layer, vector(packetBytes)"
vector 378 WirelessA.Tclient68.wlan[0].mac packetDropNotAddressedToUs:vector(packetBytes) ETV
attr interpolationmode none
attr source packetDropReasonIsNotAddressedToUs(packetDropped)
attr title "packet drop: not addressed to us, vector(packetBytes)"
vector 379 WirelessA.Tclient73.wlan[0].mac rcvdPkFromLl:vector(packetBytes) ETV
attr interpolationmode none
attr source packetReceivedFromLower
attr title "packets received from lower layer, vector(packetBytes)"
vector 380 WirelessA.Tclient73.wlan[0].mac packetDropNotAddressedToUs:vector(packetBytes) ETV
attr interpolationmode none
attr source packetDropReasonIsNotAddressedToUs(packetDropped)
attr title "packet drop: not addressed to us, vector(packetBytes)"
vector 381 WirelessA.Tclient93.wlan[0].mac rcvdPkFromLl:vector(packetBytes) ETV
attr interpolationmode none
attr source packetReceivedFromLower
attr title "packets received from lower layer, vector(packetBytes)"
vector 382 WirelessA.Tclient93.wlan[0].mac packetDropNotAddressedToUs:vector(packetBytes) ETV
attr interpolationmode none
attr source packetDropReasonIsNotAddressedToUs(packetDropped)
attr title "packet drop: not addressed to us, vector(packetBytes)"
vector 383 WirelessA.Tclient10.wlan[0].mac rcvdPkFromLl:vector(packetBytes) ETV
attr interpolationmode none
attr source packetReceivedFromLower
attr title "packets received from lower layer, vector(packetBytes)"
vector 384 WirelessA.Tclient10.wlan[0].mac packetDropNotAddressedToUs:vector(packetBytes) ETV
attr interpolationmode none
attr source packetDropReasonIsNotAddressedToUs(packetDropped)
attr title "packet drop: not addressed to us, vector(packetBytes)"
vector 385 WirelessA.Tclient39.wlan[0].mac rcvdPkFromLl:vector(packetBytes) ETV
attr interpolationmode none
attr source packetReceivedFromLower
attr title "packets received from lower layer, vector(packetBytes)"
vector 386 WirelessA.Tclient39.wlan[0].mac packetDropNotAddressedToUs:vector(packetBytes) ETV
attr interpolationmode none
attr source packetDropReasonIsNotAddressedToUs(packetDropped)
attr title "packet drop: not addressed to us, vector(packetBytes)"
vector 387 WirelessA.Tclient125.wlan[0].mac rcvdPkFromLl:vector(packetBytes) ETV
attr interpolationmode none
attr source packetReceivedFromLower
attr title "packets received from lower layer, vector(packetBytes)"
vector 388 WirelessA.Tclient125.wlan[0].mac packetDropNotAddressedToUs:vector(packetBytes) ETV
attr interpolationmode none
attr source packetDropReasonIsNotAddressedToUs(packetDropped)
attr title "packet drop: not addressed to us, vector(packetBytes)"
vector 389 WirelessA.Tclient.wlan[0].mac rcvdPkFromLl:vector(packetBytes) ETV
attr interpolationmode none
attr source packetReceivedFromLower
attr title "packets received from lower layer, vector(packetBytes)"
vector 390 WirelessA.Tclient.wlan[0].mac packetDropNotAddressedToUs:vector(packetBytes) ETV
attr interpolationmode none
attr source packetDropReasonIsNotAddressedToUs(packetDropped)
attr title "packet drop: not addressed to us, vector(packetBytes)"
vector 391 WirelessA.Tclient85.wlan[0].mac rcvdPkFromLl:vector(packetBytes) ETV
attr interpolationmode none
attr source packetReceivedFromLower
attr title "packets received from lower layer, vector(packetBytes)"
vector 392 WirelessA.Tclient85.wlan[0].mac packetDropNotAddressedToUs:vector(packetBytes) ETV
attr interpolationmode none
attr source packetDropReasonIsNotAddressedToUs(packetDropped)
attr title "packet drop: not addressed to us, vector(packetBytes)"
vector 393 WirelessA.Tclient62.wlan[0].mac rcvdPkFromLl:vector(packetBytes) ETV
attr interpolationmode none
attr source packetReceivedFromLower
attr title "packets received from lower layer, vector(packetBytes)"
vector 394 WirelessA.Tclient62.wlan[0].mac packetDropNotAddressedToUs:vector(packetBytes) ETV
attr interpolationmode none
attr source packetDropReasonIsNotAddressedToUs(packetDropped)
attr title "packet drop: not addressed to us, vector(packetBytes)"
vector 395 WirelessA.Tclient139.wlan[0].mac rcvdPkFromLl:vector(packetBytes) ETV
attr interpolationmode none
attr source packetReceivedFromLower
attr title "packets received from lower layer, vector(packetBytes)"
vector 396 WirelessA.Tclient139.wlan[0].mac packetDropNotAddressedToUs:vector(packetBytes) ETV
attr interpolationmode none
attr source packetDropReasonIsNotAddressedToUs(packetDropped)
attr title "packet drop: not addressed to us, vector(packetBytes)"
vector 397 WirelessA.Tclient83.wlan[0].mac rcvdPkFromLl:vector(packetBytes) ETV
attr interpolationmode none
attr source packetReceivedFromLower
attr title "packets received from lower layer, vector(packetBytes)"
vector 398 WirelessA.Tclient83.wlan[0].mac packetDropNotAddressedToUs:vector(packetBytes) ETV
attr interpolationmode none
attr source packetDropReasonIsNotAddressedToUs(packetDropped)
attr title "packet drop: not addressed to us, vector(packetBytes)"
vector 399 WirelessA.Tclient79.wlan[0].mac rcvdPkFromLl:vector(packetBytes) ETV
attr interpolationmode none
attr source packetReceivedFromLower
attr title "packets received from lower layer, vector(packetBytes)"
vector 400 WirelessA.Tclient79.wlan[0].mac packetDropNotAddressedToUs:vector(packetBytes) ETV
attr interpolationmode none
attr source packetDropReasonIsNotAddressedToUs(packetDropped)
attr title "packet drop: not addressed to us, vector(packetBytes)"
vector 401 WirelessA.Tclient92.wlan[0].mac rcvdPkFromLl:vector(packetBytes) ETV
attr interpolationmode none
attr source packetReceivedFromLower
attr title "packets received from lower layer, vector(packetBytes)"
vector 402 WirelessA.Tclient92.wlan[0].mac packetDropNotAddressedToUs:vector(packetBytes) ETV
attr interpolationmode none
attr source packetDropReasonIsNotAddressedToUs(packetDropped)
attr title "packet drop: not addressed to us, vector(packetBytes)"
vector 403 WirelessA.Tclient148.wlan[0].mac rcvdPkFromLl:vector(packetBytes) ETV
attr interpolationmode none
attr source packetReceivedFromLower
attr title "packets received from lower layer, vector(packetBytes)"
vector 404 WirelessA.Tclient148.wlan[0].mac packetDropNotAddressedToUs:vector(packetBytes) ETV
attr interpolationmode none
attr source packetDropReasonIsNotAddressedToUs(packetDropped)
attr title "packet drop: not addressed to us, vector(packetBytes)"
vector 405 WirelessA.Tclient37.wlan[0].mac rcvdPkFromLl:vector(packetBytes) ETV
attr interpolationmode none
attr source packetReceivedFromLower
attr title "packets received from lower layer, vector(packetBytes)"
vector 406 WirelessA.Tclient37.wlan[0].mac packetDropNotAddressedToUs:vector(packetBytes) ETV
attr interpolationmode none
attr source packetDropReasonIsNotAddressedToUs(packetDropped)
attr title "packet drop: not addressed to us, vector(packetBytes)"
vector 407 WirelessA.Tclient33.wlan[0].mac rcvdPkFromLl:vector(packetBytes) ETV
attr interpolationmode none
attr source packetReceivedFromLower
attr title "packets received from lower layer, vector(packetBytes)"
vector 408 WirelessA.Tclient33.wlan[0].mac packetDropNotAddressedToUs:vector(packetBytes) ETV
attr interpolationmode none
attr source packetDropReasonIsNotAddressedToUs(packetDropped)
attr title "packet drop: not addressed to us, vector(packetBytes)"
vector 409 WirelessA.Tclient80.wlan[0].mac rcvdPkFromLl:vector(packetBytes) ETV
attr interpolationmode none
attr source packetReceivedFromLower
attr title "packets received from lower layer, vector(packetBytes)"
vector 410 WirelessA.Tclient80.wlan[0].mac packetDropNotAddressedToUs:vector(packetBytes) ETV
attr interpolationmode none
attr source packetDropReasonIsNotAddressedToUs(packetDropped)
attr title "packet drop: not addressed to us, vector(packetBytes)"
[...]
1484	6429892 538 118456 118456 0.1 3 30 0 80000 80000 6400000000
1485	6430430 32 121828 121828 3.133878715894 3.133878715894 1 1028 1028 1028 1056784
1486	6430462 32 121830 121830 3.133878715894 3.133878715894 1 1008 1008 1008 1016064
1487	6430494 29 121830 121830 3.133878715894 3.133878715894 1 1 1 1 1
1488	6430523 32 121831 121831 3.133878715894 3.133878715894 1 1000 1000 1000 1000000
1489	6430555 552 121831 121831 0.1 3.1 31 0 0 0 0
1490	6431107 42 121831 121831 3.133878715894 3.133878715894 1 0.015467191934 0.015467191934 0.015467191934 0.00023923402632319
1491	6431149 31 121831 121831 3.133878715894 3.133878715894 1 263 263 263 69169
1492	6431180 32 126507 126507 3.222965768931 3.222965768931 1 1028 1028 1028 1056784
1493	6431212 32 126509 126509 3.222965768931 3.222965768931 1 1008 1008 1008 1016064
1494	6431244 29 126509 126509 3.222965768931 3.222965768931 1 1 1 1 1
1495	6431273 32 126510 126510 3.222965768931 3.222965768931 1 1000 1000 1000 1000000
1496	6431305 570 126510 126510 0.1 3.2 32 0 0 0 0
1497	6431875 42 126510 126510 3.222965768931 3.222965768931 1 0.022475574258 0.022475574258 0.022475574258 0.00050515143822687
1498	6431917 31 126510 126510 3.222965768931 3.222965768931 1 273 273 273 74529
1499	6431948 32 129997 129997 3.319958996522 3.319958996522 1 1028 1028 1028 1056784
1500	6431980 32 129999 129999 3.319958996522 3.319958996522 1 1008 1008 1008 1016064
1501	6432012 29 129999 129999 3.319958996522 3.319958996522 1 1 1 1 1
1502	6432041 32 130000 130000 3.319958996522 3.319958996522 1 1000 1000 1000 1000000
1503	6432073 588 130000 130000 0.1 3.3 33 0 0 0 0
1504	6432661 42 130000 130000 3.319958996522 3.319958996522 1 0.008509127436 0.008509127436 0.008509127436 7.2405249722088e-05
1505	6432703 31 130000 130000 3.319958996522 3.319958996522 1 281 281 281 78961
1506	6432734 64 133043 135815 3.395307048706 3.446331048706 2 1028 1028 2056 2113568
1507	6432798 64 133045 135817 3.395307048706 3.446331048706 2 1008 1008 2016 2032128
1508	6432862 58 133045 135817 3.395307048706 3.446331048706 2 1 2 3 5
1509	6432920 64 133046 135818 3.395307048706 3.446331048706 2 1000 1000 2000 2000000
1510	6432984 610 133046 135818 0.1 3.4 34 0 80000 80000 6400000000
1511	6433594 84 133046 135818 3.395307048706 3.446331048706 2 0.018716325907 0.035073063466 0.053789389373 0.0015804206363471
1512	6433678 62 133046 135818 3.395307048706 3.446331048706 2 287 293 580 168218
1513	6433740 32 134401 134401 3.420818233326 3.420818233326 1 1028 1028 1028 1056784
1514	6433772 32 134403 134403 3.420818233326 3.420818233326 1 1008 1008 1008 1016064
1515	6433804 29 134403 134403 3.420818233326 3.420818233326 1 1 1 1 1
1516	6433833 32 134404 134404 3.420818233326 3.420818233326 1 1000 1000 1000 1000000
1517	6433865 606 134404 134404 0.1 3.4 34 0 0 0 0
1518	6434471 42 134404 134404 3.420818233326 3.420818233326 1 0.018515818829 0.018515818829 0.018515818829 0.00034283554690835
1519	6434513 31 134404 134404 3.420818233326 3.420818233326 1 290 290 290 84100
1520	6434544 64 137896 138360 3.488847034154 3.497351034154 2 1028 1028 2056 2113568
1521	6434608 64 137898 138362 3.488847034154 3.497351034154 2 1008 1008 2016 2032128
1522	6434672 58 137898 138362 3.488847034154 3.497351034154 2 1 2 3 5
1523	6434730 64 137899 138363 3.488847034154 3.497351034154 2 1000 1000 2000 2000000
1524	6434794 606 137899 137899 0.1 3.4 34 0 0 0 0
1525	6435400 84 137899 138363 3.488847034154 3.497351034154 2 0.044423356385 0.047674482912 0.092097839297 0.0042462909134353
1526	6435484 62 137899 138363 3.488847034154 3.497351034154 2 298 299 597 178205
1527	6435546 31 139747 139747 3.52286328801 3.52286328801 1 1028 1028 1028 1056784
1528	6435577 31 139749 139749 3.52286328801 3.52286328801 1 1008 1008 1008 1016064
1529	6435608 28 139749 139749 3.52286328801 3.52286328801 1 1 1 1 1
1530	6435636 31 139750 139750 3.52286328801 3.52286328801 1 1000 1000 1000 1000000
1531	6435667 624 139750 139750 0.1 3.5 35 0 0 0 0
1532	6436291 41 139750 139750 3.52286328801 3.52286328801 1 0.053864608665 0.053864608665 0.053864608665 0.0029013960666336
1533	6436332 30 139750 139750 3.52286328801 3.52286328801 1 302 302 302 91204
1534	6436362 32 140365 140365 3.531370184283 3.531370184283 1 1028 1028 1028 1056784
1535	6436394 32 140367 140367 3.531370184283 3.531370184283 1 1008 1008 1008 1016064
1536	6436426 29 140367 140367 3.531370184283 3.531370184283 1 1 1 1 1
1537	6436455 32 140368 140368 3.531370184283 3.531370184283 1 1000 1000 1000 1000000
1538	6436487 624 140368 140368 0.1 3.5 35 0 0 0 0
1539	6437111 42 140368 140368 3.531370184283 3.531370184283 1 0.057167111293 0.057167111293 0.057167111293 0.0032680786135862
1540	6437153 31 140368 140368 3.531370184283 3.531370184283 1 303 303 303 91809
1541	6437184 32 153769 153769 3.847580555312 3.847580555312 1 1028 1028 1028 1056784
1542	6437216 32 153771 153771 3.847580555312 3.847580555312 1 1008 1008 1008 1016064
1543	6437248 29 153771 153771 3.847580555312 3.847580555312 1 1 1 1 1
1544	6437277 32 153772 153772 3.847580555312 3.847580555312 1 1000 1000 1000 1000000
1545	6437309 678 153772 153772 0.1 3.8 38 0 0 0 0
1546	6437987 42 153772 153772 3.847580555312 3.847580555312 1 0.021271195663 0.021271195663 0.021271195663 0.00045246376493363
1547	6438029 31 153772 153772 3.847580555312 3.847580555312 1 332 332 332 110224
1548	6438060 32 154355 154355 3.884367445057 3.884367445057 1 1028 1028 1028 1056784
1549	6438092 32 154357 154357 3.884367445057 3.884367445057 1 1008 1008 1008 1016064
1550	6438124 29 154357 154357 3.884367445057 3.884367445057 1 1 1 1 1
1551	6438153 32 154358 154358 3.884367445057 3.884367445057 1 1000 1000 1000 1000000
1552	6438185 678 154358 154358 0.1 3.8 38 0 0 0 0
1553	6438863 42 154358 154358 3.884367445057 3.884367445057 1 0.008507603228 0.008507603228 0.008507603228 7.2379312685076e-05
1554	6438905 31 154358 154358 3.884367445057 3.884367445057 1 334 334 334 111556
vector 1555 WirelessA.Tserveur.app[0] throughput:vector ETV
attr source throughput(packetReceived)
attr title "throughput, vector"
attr unit bps
vector 1556 WirelessA.Tclient1.app[0] throughput:vector ETV
attr source throughput(packetReceived)
attr title "throughput, vector"
attr unit bps
vector 1557 WirelessA.Tclient14.app[0] throughput:vector ETV
attr source throughput(packetReceived)
attr title "throughput, vector"
attr unit bps
vector 1558 WirelessA.Tclient17.app[0] throughput:vector ETV
attr source throughput(packetReceived)
attr title "throughput, vector"
attr unit bps
vector 1559 WirelessA.Tclient21.app[0] throughput:vector ETV
attr source throughput(packetReceived)
attr title "throughput, vector"
attr unit bps
vector 1560 WirelessA.Tclient27.app[0] throughput:vector ETV
attr source throughput(packetReceived)
attr title "throughput, vector"
attr unit bps
vector 1561 WirelessA.Tclient31.app[0] throughput:vector ETV
attr source throughput(packetReceived)
attr title "throughput, vector"
attr unit bps
vector 1562 WirelessA.Tclient33.app[0] throughput:vector ETV
attr source throughput(packetReceived)
attr title "throughput, vector"
attr unit bps
vector 1563 WirelessA.Tclient35.app[0] throughput:vector ETV
attr source throughput(packetReceived)
attr title "throughput, vector"
attr unit bps
vector 1564 WirelessA.Tclient41.app[0] throughput:vector ETV
attr source throughput(packetReceived)
attr title "throughput, vector"
attr unit bps
vector 1565 WirelessA.Tclient54.app[0] throughput:vector ETV
attr source throughput(packetReceived)
attr title "throughput, vector"
attr unit bps
vector 1566 WirelessA.Tclient64.app[0] throughput:vector ETV
attr source throughput(packetReceived)
attr title "throughput, vector"
attr unit bps
vector 1567 WirelessA.Tclient95.app[0] throughput:vector ETV
attr source throughput(packetReceived)
attr title "throughput, vector"
attr unit bps
vector 1568 WirelessA.Tclient103.app[0] throughput:vector ETV
attr source throughput(packetReceived)
attr title "throughput, vector"
attr unit bps
vector 1569 WirelessA.Tclient111.app[0] throughput:vector ETV
attr source throughput(packetReceived)
attr title "throughput, vector"
attr unit bps
vector 1570 WirelessA.Tclient142.app[0] throughput:vector ETV
attr source throughput(packetReceived)
attr title "throughput, vector"
attr unit bps
vector 1571 WirelessA.Tclient143.app[0] throughput:vector ETV
attr source throughput(packetReceived)
attr title "throughput, vector"
attr unit bps
669	6441420 83 157013 157013 3.7 3.930054858297 4 0 80000 80000 6400000000
676	6441503 217 157013 157013 2.9 3.930054858297 12 0 80000 80000 6400000000
683	6441720 83 157013 157013 3.7 3.930054858297 4 0 80000 80000 6400000000
690	6441803 672 157013 157013 0.2 3.930054858297 39 0 80000 80000 6400000000
697	6442475 234 157013 157013 2.8 3.930054858297 13 0 80000 80000 6400000000
704	6442709 217 157013 157013 2.9 3.930054858297 12 0 80000 80000 6400000000
711	6442926 66 157013 157013 3.8 3.930054858297 3 0 80000 80000 6400000000
718	6442992 368 157013 157013 2 3.930054858297 21 0 80000 80000 6400000000
725	6443360 672 157013 157013 0.2 3.930054858297 39 0 80000 80000 6400000000
732	6444032 217 157013 157013 2.9 3.930054858297 12 0 80000 80000 6400000000
739	6444249 319 157013 157013 2.3 3.930054858297 18 0 80000 80000 6400000000
746	6444568 655 157013 157013 0.3 3.930054858297 38 0 80000 80000 6400000000
753	6445223 487 157013 157013 1.3 3.930054858297 28 0 80000 80000 6400000000
760	6445710 100 157013 157013 3.6 3.930054858297 5 0 80000 80000 6400000000
767	6445810 151 157013 157013 3.3 3.930054858297 8 0 80000 80000 6400000000
774	6445961 117 157013 157013 3.5 3.930054858297 6 0 80000 80000 6400000000
781	6446078 655 157013 157013 0.3 3.930054858297 38 0 80000 80000 6400000000
788	6446733 655 157013 157013 0.3 3.930054858297 38 0 80000 80000 6400000000
795	6447388 553 157013 157013 0.9 3.930054858297 32 0 80000 80000 6400000000
802	6447941 67 157013 157013 3.8 3.930054858297 3 0 160000 160000 25600000000
805	6448008 436 157013 157013 1.6 3.930054858297 25 0 80000 80000 6400000000
806	6448444 83 157013 157013 3.7 3.930054858297 4 0 80000 80000 6400000000
811	6448527 83 157013 157013 3.7 3.930054858297 4 0 80000 80000 6400000000
818	6448610 168 157013 157013 3.2 3.930054858297 9 0 80000 80000 6400000000
825	6448778 117 157013 157013 3.5 3.930054858297 6 0 80000 80000 6400000000
832	6448895 217 157013 157013 2.9 3.930054858297 12 0 80000 80000 6400000000
839	6449112 117 157013 157013 3.5 3.930054858297 6 0 80000 80000 6400000000
846	6449229 168 157013 157013 3.2 3.930054858297 9 0 80000 80000 6400000000
853	6449397 49 157013 157013 3.9 3.930054858297 2 0 80000 80000 6400000000
860	6449446 66 157013 157013 3.8 3.930054858297 3 0 80000 80000 6400000000
867	6449512 336 157013 157013 2.2 3.930054858297 19 0 80000 80000 6400000000
874	6449848 117 157013 157013 3.5 3.930054858297 6 0 80000 80000 6400000000
881	6449965 285 157013 157013 2.5 3.930054858297 16 0 80000 80000 6400000000
888	6450250 100 157013 157013 3.6 3.930054858297 5 0 80000 80000 6400000000
895	6450350 100 157013 157013 3.6 3.930054858297 5 0 80000 80000 6400000000
902	6450450 353 157013 157013 2.1 3.930054858297 20 0 80000 80000 6400000000
909	6450803 419 157013 157013 1.7 3.930054858297 24 0 80000 80000 6400000000
916	6451222 604 157013 157013 0.6 3.930054858297 35 0 80000 80000 6400000000
923	6451826 536 157013 157013 1 3.930054858297 31 0 80000 80000 6400000000
930	6452362 604 157013 157013 0.6 3.930054858297 35 0 80000 80000 6400000000
937	6452966 100 157013 157013 3.6 3.930054858297 5 0 80000 80000 6400000000
944	6453066 453 157013 157013 1.5 3.930054858297 26 0 80000 80000 6400000000
951	6453519 42 157013 157013 3.930054858297 3.930054858297 1 266179.92741621 266179.92741621 266179.92741621 70851753759.3
958	6453561 453 157013 157013 1.5 3.930054858297 26 0 80000 80000 6400000000
965	6454014 319 157013 157013 2.3 3.930054858297 18 0 80000 80000 6400000000
968	6454333 134 157013 157013 3.4 3.930054858297 7 0 80000 80000 6400000000
973	6454467 100 157013 157013 3.6 3.930054858297 5 0 80000 80000 6400000000
980	6454567 200 157013 157013 3 3.930054858297 11 0 80000 80000 6400000000
987	6454767 487 157013 157013 1.3 3.930054858297 28 0 80000 80000 6400000000
994	6455254 536 157013 157013 1 3.930054858297 31 0 80000 80000 6400000000
1001	6455790 621 157013 157013 0.7 3.930054858297 34 0 80000 80000 6400000000
1008	6456411 51 157013 157013 3.9 3.930054858297 2 0 80000 80000 6400000000
1015	6456462 195 157013 157013 3.1 3.930054858297 10 0 80000 80000 6400000000
1022	6456657 123 157013 157013 3.5 3.930054858297 6 0 80000 80000 6400000000
1029	6456780 51 157013 157013 3.9 3.930054858297 2 0 80000 80000 6400000000
1036	6456831 211 157013 157013 3 3.930054858297 11 0 80000 80000 6400000000
1043	6457042 301 157013 157013 2.5 3.930054858297 16 0 80000 80000 6400000000
1050	6457343 195 157013 157013 3.1 3.930054858297 10 0 80000 80000 6400000000
1057	6457538 603 157013 157013 0.8 3.930054858297 33 0 80000 80000 6400000000
1060	6458141 337 157013 157013 2.3 3.930054858297 18 0 80000 80000 6400000000
1065	6458478 265 157013 157013 2.7 3.930054858297 14 0 80000 80000 6400000000
1072	6458743 51 157013 157013 3.9 3.930054858297 2 0 80000 80000 6400000000
1079	6458794 319 157013 157013 2.4 3.930054858297 17 0 80000 80000 6400000000
1086	6459113 247 157013 157013 2.8 3.930054858297 13 0 80000 80000 6400000000
1093	6459360 141 157013 157013 3.4 3.930054858297 7 0 80000 80000 6400000000
1100	6459501 177 157013 157013 3.2 3.930054858297 9 0 80000 80000 6400000000
1107	6459678 373 157013 157013 2.1 3.930054858297 20 0 80000 80000 6400000000
1114	6460051 301 157013 157013 2.5 3.930054858297 16 0 80000 80000 6400000000
1121	6460352 87 157013 157013 3.7 3.930054858297 4 0 80000 80000 6400000000
1128	6460439 211 157013 157013 3 3.930054858297 11 0 80000 80000 6400000000
1135	6460650 551 157013 157013 1.1 3.930054858297 30 0 80000 80000 6400000000
1142	6461201 141 157013 157013 3.4 3.930054858297 7 0 80000 80000 6400000000
1149	6461342 51 157013 157013 3.9 3.930054858297 2 0 80000 80000 6400000000
1156	6461393 123 157013 157013 3.5 3.930054858297 6 0 80000 80000 6400000000
1163	6461516 43 157013 157013 3.930054858297 3.930054858297 1 266179.92741621 266179.92741621 266179.92741621 70851753759.3
1170	6461559 373 157013 157013 2.1 3.930054858297 20 0 80000 80000 6400000000
1177	6461932 373 157013 157013 2.1 3.930054858297 20 0 80000 80000 6400000000
1184	6462305 43 157013 157013 3.930054858297 3.930054858297 1 266179.92741621 266179.92741621 266179.92741621 70851753759.3
1187	6462348 533 157013 157013 1.2 3.930054858297 29 0 80000 80000 6400000000
1192	6462881 159 157013 157013 3.3 3.930054858297 8 0 80000 80000 6400000000
1199	6463040 515 157013 157013 1.3 3.930054858297 28 0 80000 80000 6400000000
1206	6463555 515 157013 157013 1.3 3.930054858297 28 0 80000 80000 6400000000
1213	6464070 69 157013 157013 3.8 3.930054858297 3 0 80000 80000 6400000000
1220	6464139 105 157013 157013 3.6 3.930054858297 5 0 80000 80000 6400000000
1227	6464244 497 157013 157013 1.4 3.930054858297 27 0 80000 80000 6400000000
1234	6464741 319 157013 157013 2.4 3.930054858297 17 0 80000 80000 6400000000
1241	6465060 247 157013 157013 2.8 3.930054858297 13 0 80000 80000 6400000000
1248	6465307 51 157013 157013 3.9 3.930054858297 2 0 80000 80000 6400000000
1255	6465358 283 157013 157013 2.6 3.930054858297 15 0 80000 80000 6400000000
1262	6465641 461 157013 157013 1.6 3.930054858297 25 0 80000 80000 6400000000
1269	6466102 51 157013 157013 3.9 3.930054858297 2 0 80000 80000 6400000000
1272	6466153 443 157013 157013 1.7 3.930054858297 24 0 80000 80000 6400000000
1277	6466596 443 157013 157013 1.7 3.930054858297 24 0 80000 80000 6400000000
1284	6467039 195 157013 157013 3.1 3.930054858297 10 0 80000 80000 6400000000
1291	6467234 69 157013 157013 3.8 3.930054858297 3 0 80000 80000 6400000000
1298	6467303 266 157013 157013 2.7 3.930054858297 14 0 160000 160000 25600000000
1305	6467569 159 157013 157013 3.3 3.930054858297 8 0 80000 80000 6400000000
1312	6467728 301 157013 157013 2.5 3.930054858297 16 0 80000 80000 6400000000
1319	6468029 283 157013 157013 2.6 3.930054858297 15 0 80000 80000 6400000000
1326	6468312 407 157013 157013 1.9 3.930054858297 22 0 80000 80000 6400000000
1333	6468719 105 157013 157013 3.6 3.930054858297 5 0 80000 80000 6400000000
1340	6468824 283 157013 157013 2.6 3.930054858297 15 0 80000 80000 6400000000
1347	6469107 373 157013 157013 2.1 3.930054858297 20 0 80000 80000 6400000000
1354	6469480 105 157013 157013 3.6 3.930054858297 5 0 80000 80000 6400000000
1361	6469585 247 157013 157013 2.8 3.930054858297 13 0 80000 80000 6400000000
1368	6469832 355 157013 157013 2.2 3.930054858297 19 0 80000 80000 6400000000
1375	6470187 177 157013 157013 3.2 3.930054858297 9 0 80000 80000 6400000000
1382	6470364 195 157013 157013 3.1 3.930054858297 10 0 80000 80000 6400000000
1389	6470559 69 157013 157013 3.8 3.930054858297 3 0 80000 80000 6400000000
1392	6470628 43 157013 157013 3.930054858297 3.930054858297 1 266179.92741621 266179.92741621 266179.92741621 70851753759.3
1397	6470671 265 157013 157013 2.7 3.930054858297 14 0 80000 80000 6400000000
1404	6470936 265 157013 157013 2.7 3.930054858297 14 0 80000 80000 6400000000
1411	6471201 195 157013 157013 3.1 3.930054858297 10 0 80000 80000 6400000000
1418	6471396 87 157013 157013 3.7 3.930054858297 4 0 80000 80000 6400000000
1425	6471483 69 157013 157013 3.8 3.930054858297 3 0 80000 80000 6400000000
1432	6471552 247 157013 157013 2.8 3.930054858297 13 0 80000 80000 6400000000
1439	6471799 247 157013 157013 2.8 3.930054858297 13 0 80000 80000 6400000000
1446	6472046 159 157013 157013 3.3 3.930054858297 8 0 80000 80000 6400000000
1453	6472205 247 157013 157013 2.8 3.930054858297 13 0 80000 80000 6400000000
1460	6472452 229 157013 157013 2.9 3.930054858297 12 0 80000 80000 6400000000
1467	6472681 69 157013 157013 3.8 3.930054858297 3 0 80000 80000 6400000000
1474	6472750 141 157013 157013 3.4 3.930054858297 7 0 80000 80000 6400000000
1481	6472891 105 157013 157013 3.6 3.930054858297 5 0 80000 80000 6400000000
1484	6472996 195 157013 157013 3.1 3.930054858297 10 0 80000 80000 6400000000
1489	6473191 177 157013 157013 3.2 3.930054858297 9 0 80000 80000 6400000000
1496	6473368 159 157013 157013 3.3 3.930054858297 8 0 80000 80000 6400000000
1503	6473527 141 157013 157013 3.4 3.930054858297 7 0 80000 80000 6400000000
1510	6473668 123 157013 157013 3.5 3.930054858297 6 0 80000 80000 6400000000
1517	6473791 123 157013 157013 3.5 3.930054858297 6 0 80000 80000 6400000000
1524	6473914 124 157013 157013 3.5 3.930054858297 6 0 160000 160000 25600000000
1531	6474038 105 157013 157013 3.6 3.930054858297 5 0 80000 80000 6400000000
1538	6474143 105 157013 157013 3.6 3.930054858297 5 0 80000 80000 6400000000
1545	6474248 51 157013 157013 3.9 3.930054858297 2 0 80000 80000 6400000000
1552	6474299 51 157013 157013 3.9 3.930054858297 2 0 80000 80000 6400000000
1555	6474350 725 157013 157013 0.1 3.930054858297 40 0 0 0 0
1556	6475075 725 157013 157013 0.1 3.930054858297 40 0 0 0 0
1557	6475800 729 157013 157013 0.1 3.930054858297 40 0 80000 80000 6400000000
1558	6476529 725 157013 157013 0.1 3.930054858297 40 0 0 0 0
1559	6477254 725 157013 157013 0.1 3.930054858297 40 0 0 0 0
1560	6477979 725 157013 157013 0.1 3.930054858297 40 0 0 0 0
1561	6478704 725 157013 157013 0.1 3.930054858297 40 0 0 0 0
1562	6479429 725 157013 157013 0.1 3.930054858297 40 0 0 0 0
1563	6480154 725 157013 157013 0.1 3.930054858297 40 0 0 0 0
1564	6480879 725 157013 157013 0.1 3.930054858297 40 0 0 0 0
1565	6481604 725 157013 157013 0.1 3.930054858297 40 0 0 0 0
1566	6482329 725 157013 157013 0.1 3.930054858297 40 0 0 0 0
1567	6483054 725 157013 157013 0.1 3.930054858297 40 0 0 0 0
1568	6483779 725 157013 157013 0.1 3.930054858297 40 0 0 0 0
1569	6484504 725 157013 157013 0.1 3.930054858297 40 0 0 0 0
1570	6485229 725 157013 157013 0.1 3.930054858297 40 0 0 0 0
1571	6485954 725 157013 157013 0.1 3.930054858297 40 0 0 0 0

