version 2
run Wireless01-0-20200619-14:36:11-22664
attr configname Wireless01
attr datetime 20200619-14:36:11
attr experiment Wireless01
attr inifile omnetpp.ini
attr iterationvars ""
attr iterationvarsf ""
attr measurement ""
attr network WirelessA
attr processid 22664
attr repetition 0
attr replication #0
attr resultdir results
attr runnumber 0
attr seedset 0
param *.T*.ipv4.arp.typename "\"GlobalArp\""
param *.Tserveur.numApps 1
param *.Tserveur.app[0].typename "\"UdpBasicApp\""
param *.Tserveur.app[0].destAddresses "\"Tclient Tclient1 Tclient2 Tclient3 Tclient4 Tclient5 Tclient6 Tclient7 Tclient8 Tclient9 Tclient10 Tclient11 Tclient12 Tclient13 Tclient14 Tclient15 Tclient16 Tclient17 Tclient18 Tclient19 Tclient20 Tclient21 Tclient22 Tclient23 Tclient24 Tclient25 Tclient26 Tclient27 Tclient28 Tclient29 Tclient30 Tclient31 Tclient32 Tclient33 Tclient34 Tclient35 Tclient36 Tclient37 Tclient38 Tclient39 Tclient40 Tclient41 Tclient42 Tclient43 Tclient44 Tclient45 Tclient46 Tclient47 Tclient48 Tclient49 Tclient50 Tclient51 Tclient52 Tclient53 Tclient54 Tclient55 Tclient56 Tclient57 Tclient58 Tclient59 Tclient60 Tclient61 Tclient62 Tclient63 Tclient64 Tclient65 Tclient66 Tclient67 Tclient68 Tclient69 Tclient70 Tclient71 Tclient72 Tclient73 Tclient74 Tclient75 Tclient76 Tclient77 Tclient78 Tclient79 Tclient80 Tclient81 Tclient82 Tclient83 Tclient84 Tclient85 Tclient86 Tclient87 Tclient88 Tclient89 Tclient90 Tclient91 Tclient92 Tclient93 Tclient94 Tclient95 Tclient96 Tclient97 Tclient98 Tclient99 Tclient100 Tclient101 Tclient102 Tclient103 Tclient104 Tclient105 Tclient106 Tclient107 Tclient108 Tclient109 Tclient110 Tclient111 Tclient112 Tclient113 Tclient114 Tclient115 Tclient116 Tclient117 Tclient118 Tclient119 Tclient120 Tclient121 Tclient122 Tclient123 Tclient124 Tclient125 Tclient126 Tclient127 Tclient128 Tclient129 Tclient130 Tclient131 Tclient132 Tclient133 Tclient134 Tclient135 Tclient136 Tclient137 Tclient138 Tclient139 Tclient140 Tclient141 Tclient142 Tclient143 Tclient144 Tclient145 Tclient146 Tclient147 Tclient148 Tclient149\""
param *.Tserveur.app[0].destPort 5000
param *.Tserveur.app[0].messageLength 1000B
param *.Tserveur.app[0].sendInterval exponential(12ms)
param *.Tserveur.app[0].packetName "\"UDPData\""
param *.Tserveur.wlan[0].radio.displayCommunicationRange true
param *.Tclient*.numApps 1
param *.Tclient*.app[0].typename "\"UdpSink\""
param *.Tclient*.app[0].localPort 5000
param *.T*.wlan[0].typename "\"AckingWirelessInterface\""
param *.T*.wlan[0].mac.useAck false
param *.T*.wlan[0].mac.fullDuplex false
param *.T*.wlan[0].radio.transmitter.communicationRange 3000m
param *.T*.wlan[0].radio.receiver.ignoreInterference true
param *.T*.wlan[0].mac.headerLength 23B
param *.visualizer.mediumVisualizer.displaySignals true
param *.visualizer.sceneVisualizer.descriptionFigure "\"title\""
param *.visualizer.physicalLinkVisualizer.displayLinks true
param *.visualizer.physicalLinkVisualizer.packetFilter "\"UDPData\""
param *.T*.**.bitrate 1Mbps

vector 0 WirelessA.Tserveur.wlan[0].radio radioMode:vector ETV
attr interpolationmode sample-hold
attr source radioModeChanged
attr title "Radio mode, vector"
vector 1 WirelessA.Tclient.wlan[0].radio radioMode:vector ETV
attr interpolationmode sample-hold
attr source radioModeChanged
attr title "Radio mode, vector"
vector 2 WirelessA.Tclient1.wlan[0].radio radioMode:vector ETV
attr interpolationmode sample-hold
attr source radioModeChanged
attr title "Radio mode, vector"
vector 3 WirelessA.Tclient2.wlan[0].radio radioMode:vector ETV
attr interpolationmode sample-hold
attr source radioModeChanged
attr title "Radio mode, vector"
vector 4 WirelessA.Tclient3.wlan[0].radio radioMode:vector ETV
attr interpolationmode sample-hold
attr source radioModeChanged
attr title "Radio mode, vector"
vector 5 WirelessA.Tclient4.wlan[0].radio radioMode:vector ETV
attr interpolationmode sample-hold
attr source radioModeChanged
attr title "Radio mode, vector"
vector 6 WirelessA.Tclient5.wlan[0].radio radioMode:vector ETV
attr interpolationmode sample-hold
attr source radioModeChanged
attr title "Radio mode, vector"
vector 7 WirelessA.Tclient6.wlan[0].radio radioMode:vector ETV
attr interpolationmode sample-hold
attr source radioModeChanged
attr title "Radio mode, vector"
vector 8 WirelessA.Tclient7.wlan[0].radio radioMode:vector ETV
attr interpolationmode sample-hold
attr source radioModeChanged
attr title "Radio mode, vector"
vector 9 WirelessA.Tclient8.wlan[0].radio radioMode:vector ETV
attr interpolationmode sample-hold
attr source radioModeChanged
attr title "Radio mode, vector"
vector 10 WirelessA.Tclient9.wlan[0].radio radioMode:vector ETV
attr interpolationmode sample-hold
attr source radioModeChanged
attr title "Radio mode, vector"
vector 11 WirelessA.Tclient10.wlan[0].radio radioMode:vector ETV
attr interpolationmode sample-hold
attr source radioModeChanged
attr title "Radio mode, vector"
vector 12 WirelessA.Tclient11.wlan[0].radio radioMode:vector ETV
attr interpolationmode sample-hold
attr source radioModeChanged
attr title "Radio mode, vector"
vector 13 WirelessA.Tclient12.wlan[0].radio radioMode:vector ETV
attr interpolationmode sample-hold
attr source radioModeChanged
attr title "Radio mode, vector"
vector 14 WirelessA.Tclient13.wlan[0].radio radioMode:vector ETV
attr interpolationmode sample-hold
attr source radioModeChanged
attr title "Radio mode, vector"
vector 15 WirelessA.Tclient14.wlan[0].radio radioMode:vector ETV
attr interpolationmode sample-hold
attr source radioModeChanged
attr title "Radio mode, vector"
vector 16 WirelessA.Tclient15.wlan[0].radio radioMode:vector ETV
attr interpolationmode sample-hold
attr source radioModeChanged
attr title "Radio mode, vector"
vector 17 WirelessA.Tclient16.wlan[0].radio radioMode:vector ETV
attr interpolationmode sample-hold
attr source radioModeChanged
attr title "Radio mode, vector"
vector 18 WirelessA.Tclient17.wlan[0].radio radioMode:vector ETV
attr interpolationmode sample-hold
attr source radioModeChanged
attr title "Radio mode, vector"
vector 19 WirelessA.Tclient18.wlan[0].radio radioMode:vector ETV
attr interpolationmode sample-hold
attr source radioModeChanged
attr title "Radio mode, vector"
vector 20 WirelessA.Tclient19.wlan[0].radio radioMode:vector ETV
attr interpolationmode sample-hold
attr source radioModeChanged
attr title "Radio mode, vector"
vector 21 WirelessA.Tclient20.wlan[0].radio radioMode:vector ETV
attr interpolationmode sample-hold
attr source radioModeChanged
attr title "Radio mode, vector"
vector 22 WirelessA.Tclient21.wlan[0].radio radioMode:vector ETV
attr interpolationmode sample-hold
attr source radioModeChanged
attr title "Radio mode, vector"
vector 23 WirelessA.Tclient22.wlan[0].radio radioMode:vector ETV
attr interpolationmode sample-hold
attr source radioModeChanged
attr title "Radio mode, vector"
vector 24 WirelessA.Tclient23.wlan[0].radio radioMode:vector ETV
attr interpolationmode sample-hold
attr source radioModeChanged
attr title "Radio mode, vector"
vector 25 WirelessA.Tclient24.wlan[0].radio radioMode:vector ETV
attr interpolationmode sample-hold
attr source radioModeChanged
attr title "Radio mode, vector"
vector 26 WirelessA.Tclient25.wlan[0].radio radioMode:vector ETV
attr interpolationmode sample-hold
attr source radioModeChanged
attr title "Radio mode, vector"
vector 27 WirelessA.Tclient26.wlan[0].radio radioMode:vector ETV
attr interpolationmode sample-hold
attr source radioModeChanged
attr title "Radio mode, vector"
vector 28 WirelessA.Tclient27.wlan[0].radio radioMode:vector ETV
attr interpolationmode sample-hold
attr source radioModeChanged
attr title "Radio mode, vector"
vector 29 WirelessA.Tclient28.wlan[0].radio radioMode:vector ETV
attr interpolationmode sample-hold
attr source radioModeChanged
attr title "Radio mode, vector"
vector 30 WirelessA.Tclient29.wlan[0].radio radioMode:vector ETV
attr interpolationmode sample-hold
attr source radioModeChanged
attr title "Radio mode, vector"
vector 31 WirelessA.Tclient30.wlan[0].radio radioMode:vector ETV
attr interpolationmode sample-hold
attr source radioModeChanged
attr title "Radio mode, vector"
vector 32 WirelessA.Tclient31.wlan[0].radio radioMode:vector ETV
attr interpolationmode sample-hold
attr source radioModeChanged
attr title "Radio mode, vector"
vector 33 WirelessA.Tclient32.wlan[0].radio radioMode:vector ETV
attr interpolationmode sample-hold
attr source radioModeChanged
attr title "Radio mode, vector"
vector 34 WirelessA.Tclient33.wlan[0].radio radioMode:vector ETV
attr interpolationmode sample-hold
attr source radioModeChanged
attr title "Radio mode, vector"
vector 35 WirelessA.Tclient34.wlan[0].radio radioMode:vector ETV
attr interpolationmode sample-hold
attr source radioModeChanged
attr title "Radio mode, vector"
vector 36 WirelessA.Tclient35.wlan[0].radio radioMode:vector ETV
attr interpolationmode sample-hold
attr source radioModeChanged
attr title "Radio mode, vector"
vector 37 WirelessA.Tclient36.wlan[0].radio radioMode:vector ETV
attr interpolationmode sample-hold
attr source radioModeChanged
attr title "Radio mode, vector"
vector 38 WirelessA.Tclient37.wlan[0].radio radioMode:vector ETV
attr interpolationmode sample-hold
attr source radioModeChanged
attr title "Radio mode, vector"
vector 39 WirelessA.Tclient38.wlan[0].radio radioMode:vector ETV
attr interpolationmode sample-hold
attr source radioModeChanged
attr title "Radio mode, vector"
vector 40 WirelessA.Tclient39.wlan[0].radio radioMode:vector ETV
attr interpolationmode sample-hold
attr source radioModeChanged
attr title "Radio mode, vector"
vector 41 WirelessA.Tclient40.wlan[0].radio radioMode:vector ETV
attr interpolationmode sample-hold
attr source radioModeChanged
attr title "Radio mode, vector"
vector 42 WirelessA.Tclient41.wlan[0].radio radioMode:vector ETV
attr interpolationmode sample-hold
attr source radioModeChanged
attr title "Radio mode, vector"
vector 43 WirelessA.Tclient42.wlan[0].radio radioMode:vector ETV
attr interpolationmode sample-hold
attr source radioModeChanged
attr title "Radio mode, vector"
vector 44 WirelessA.Tclient43.wlan[0].radio radioMode:vector ETV
attr interpolationmode sample-hold
attr source radioModeChanged
attr title "Radio mode, vector"
vector 45 WirelessA.Tclient44.wlan[0].radio radioMode:vector ETV
attr interpolationmode sample-hold
attr source radioModeChanged
attr title "Radio mode, vector"
vector 46 WirelessA.Tclient45.wlan[0].radio radioMode:vector ETV
attr interpolationmode sample-hold
attr source radioModeChanged
attr title "Radio mode, vector"
vector 47 WirelessA.Tclient46.wlan[0].radio radioMode:vector ETV
attr interpolationmode sample-hold
attr source radioModeChanged
attr title "Radio mode, vector"
vector 48 WirelessA.Tclient47.wlan[0].radio radioMode:vector ETV
attr interpolationmode sample-hold
attr source radioModeChanged
attr title "Radio mode, vector"
vector 49 WirelessA.Tclient48.wlan[0].radio radioMode:vector ETV
attr interpolationmode sample-hold
attr source radioModeChanged
attr title "Radio mode, vector"
vector 50 WirelessA.Tclient49.wlan[0].radio radioMode:vector ETV
attr interpolationmode sample-hold
attr source radioModeChanged
attr title "Radio mode, vector"
vector 51 WirelessA.Tclient50.wlan[0].radio radioMode:vector ETV
attr interpolationmode sample-hold
attr source radioModeChanged
attr title "Radio mode, vector"
vector 52 WirelessA.Tclient51.wlan[0].radio radioMode:vector ETV
attr interpolationmode sample-hold
attr source radioModeChanged
attr title "Radio mode, vector"
vector 53 WirelessA.Tclient52.wlan[0].radio radioMode:vector ETV
attr interpolationmode sample-hold
attr source radioModeChanged
attr title "Radio mode, vector"
vector 54 WirelessA.Tclient53.wlan[0].radio radioMode:vector ETV
attr interpolationmode sample-hold
attr source radioModeChanged
attr title "Radio mode, vector"
vector 55 WirelessA.Tclient54.wlan[0].radio radioMode:vector ETV
attr interpolationmode sample-hold
attr source radioModeChanged
attr title "Radio mode, vector"
vector 56 WirelessA.Tclient55.wlan[0].radio radioMode:vector ETV
attr interpolationmode sample-hold
attr source radioModeChanged
attr title "Radio mode, vector"
vector 57 WirelessA.Tclient56.wlan[0].radio radioMode:vector ETV
attr interpolationmode sample-hold
attr source radioModeChanged
attr title "Radio mode, vector"
vector 58 WirelessA.Tclient57.wlan[0].radio radioMode:vector ETV
attr interpolationmode sample-hold
attr source radioModeChanged
attr title "Radio mode, vector"
vector 59 WirelessA.Tclient58.wlan[0].radio radioMode:vector ETV
attr interpolationmode sample-hold
attr source radioModeChanged
attr title "Radio mode, vector"
vector 60 WirelessA.Tclient59.wlan[0].radio radioMode:vector ETV
attr interpolationmode sample-hold
attr source radioModeChanged
attr title "Radio mode, vector"
vector 61 WirelessA.Tclient60.wlan[0].radio radioMode:vector ETV
attr interpolationmode sample-hold
attr source radioModeChanged
attr title "Radio mode, vector"
vector 62 WirelessA.Tclient61.wlan[0].radio radioMode:vector ETV
attr interpolationmode sample-hold
attr source radioModeChanged
attr title "Radio mode, vector"
vector 63 WirelessA.Tclient62.wlan[0].radio radioMode:vector ETV
attr interpolationmode sample-hold
attr source radioModeChanged
attr title "Radio mode, vector"
vector 64 WirelessA.Tclient63.wlan[0].radio radioMode:vector ETV
attr interpolationmode sample-hold
attr source radioModeChanged
attr title "Radio mode, vector"
vector 65 WirelessA.Tclient64.wlan[0].radio radioMode:vector ETV
attr interpolationmode sample-hold
attr source radioModeChanged
attr title "Radio mode, vector"
vector 66 WirelessA.Tclient65.wlan[0].radio radioMode:vector ETV
attr interpolationmode sample-hold
attr source radioModeChanged
attr title "Radio mode, vector"
vector 67 WirelessA.Tclient66.wlan[0].radio radioMode:vector ETV
attr interpolationmode sample-hold
attr source radioModeChanged
attr title "Radio mode, vector"
vector 68 WirelessA.Tclient67.wlan[0].radio radioMode:vector ETV
attr interpolationmode sample-hold
attr source radioModeChanged
attr title "Radio mode, vector"
vector 69 WirelessA.Tclient68.wlan[0].radio radioMode:vector ETV
attr interpolationmode sample-hold
attr source radioModeChanged
attr title "Radio mode, vector"
vector 70 WirelessA.Tclient69.wlan[0].radio radioMode:vector ETV
attr interpolationmode sample-hold
attr source radioModeChanged
attr title "Radio mode, vector"
vector 71 WirelessA.Tclient70.wlan[0].radio radioMode:vector ETV
attr interpolationmode sample-hold
attr source radioModeChanged
attr title "Radio mode, vector"
vector 72 WirelessA.Tclient71.wlan[0].radio radioMode:vector ETV
attr interpolationmode sample-hold
attr source radioModeChanged
attr title "Radio mode, vector"
vector 73 WirelessA.Tclient72.wlan[0].radio radioMode:vector ETV
attr interpolationmode sample-hold
attr source radioModeChanged
attr title "Radio mode, vector"
vector 74 WirelessA.Tclient73.wlan[0].radio radioMode:vector ETV
attr interpolationmode sample-hold
attr source radioModeChanged
attr title "Radio mode, vector"
vector 75 WirelessA.Tclient74.wlan[0].radio radioMode:vector ETV
attr interpolationmode sample-hold
attr source radioModeChanged
attr title "Radio mode, vector"
vector 76 WirelessA.Tclient75.wlan[0].radio radioMode:vector ETV
attr interpolationmode sample-hold
attr source radioModeChanged
attr title "Radio mode, vector"
vector 77 WirelessA.Tclient76.wlan[0].radio radioMode:vector ETV
attr interpolationmode sample-hold
attr source radioModeChanged
attr title "Radio mode, vector"
vector 78 WirelessA.Tclient77.wlan[0].radio radioMode:vector ETV
attr interpolationmode sample-hold
attr source radioModeChanged
attr title "Radio mode, vector"
vector 79 WirelessA.Tclient78.wlan[0].radio radioMode:vector ETV
attr interpolationmode sample-hold
attr source radioModeChanged
attr title "Radio mode, vector"
vector 80 WirelessA.Tclient79.wlan[0].radio radioMode:vector ETV
attr interpolationmode sample-hold
attr source radioModeChanged
attr title "Radio mode, vector"
vector 81 WirelessA.Tclient80.wlan[0].radio radioMode:vector ETV
attr interpolationmode sample-hold
attr source radioModeChanged
attr title "Radio mode, vector"
vector 82 WirelessA.Tclient81.wlan[0].radio radioMode:vector ETV
attr interpolationmode sample-hold
attr source radioModeChanged
attr title "Radio mode, vector"
vector 83 WirelessA.Tclient82.wlan[0].radio radioMode:vector ETV
attr interpolationmode sample-hold
attr source radioModeChanged
attr title "Radio mode, vector"
vector 84 WirelessA.Tclient83.wlan[0].radio radioMode:vector ETV
attr interpolationmode sample-hold
attr source radioModeChanged
attr title "Radio mode, vector"
vector 85 WirelessA.Tclient84.wlan[0].radio radioMode:vector ETV
attr interpolationmode sample-hold
attr source radioModeChanged
attr title "Radio mode, vector"
vector 86 WirelessA.Tclient85.wlan[0].radio radioMode:vector ETV
attr interpolationmode sample-hold
attr source radioModeChanged
attr title "Radio mode, vector"
vector 87 WirelessA.Tclient86.wlan[0].radio radioMode:vector ETV
attr interpolationmode sample-hold
attr source radioModeChanged
attr title "Radio mode, vector"
vector 88 WirelessA.Tclient87.wlan[0].radio radioMode:vector ETV
attr interpolationmode sample-hold
attr source radioModeChanged
attr title "Radio mode, vector"
vector 89 WirelessA.Tclient88.wlan[0].radio radioMode:vector ETV
attr interpolationmode sample-hold
attr source radioModeChanged
attr title "Radio mode, vector"
vector 90 WirelessA.Tclient89.wlan[0].radio radioMode:vector ETV
attr interpolationmode sample-hold
attr source radioModeChanged
attr title "Radio mode, vector"
vector 91 WirelessA.Tclient90.wlan[0].radio radioMode:vector ETV
attr interpolationmode sample-hold
attr source radioModeChanged
attr title "Radio mode, vector"
vector 92 WirelessA.Tclient91.wlan[0].radio radioMode:vector ETV
attr interpolationmode sample-hold
attr source radioModeChanged
attr title "Radio mode, vector"
vector 93 WirelessA.Tclient92.wlan[0].radio radioMode:vector ETV
attr interpolationmode sample-hold
attr source radioModeChanged
attr title "Radio mode, vector"
vector 94 WirelessA.Tclient93.wlan[0].radio radioMode:vector ETV
attr interpolationmode sample-hold
attr source radioModeChanged
attr title "Radio mode, vector"
vector 95 WirelessA.Tclient94.wlan[0].radio radioMode:vector ETV
attr interpolationmode sample-hold
attr source radioModeChanged
attr title "Radio mode, vector"
vector 96 WirelessA.Tclient95.wlan[0].radio radioMode:vector ETV
attr interpolationmode sample-hold
attr source radioModeChanged
attr title "Radio mode, vector"
vector 97 WirelessA.Tclient96.wlan[0].radio radioMode:vector ETV
attr interpolationmode sample-hold
attr source radioModeChanged
attr title "Radio mode, vector"
vector 98 WirelessA.Tclient97.wlan[0].radio radioMode:vector ETV
attr interpolationmode sample-hold
attr source radioModeChanged
attr title "Radio mode, vector"
vector 99 WirelessA.Tclient98.wlan[0].radio radioMode:vector ETV
attr interpolationmode sample-hold
attr source radioModeChanged
attr title "Radio mode, vector"
vector 100 WirelessA.Tclient99.wlan[0].radio radioMode:vector ETV
attr interpolationmode sample-hold
attr source radioModeChanged
attr title "Radio mode, vector"
vector 101 WirelessA.Tclient100.wlan[0].radio radioMode:vector ETV
attr interpolationmode sample-hold
attr source radioModeChanged
attr title "Radio mode, vector"
vector 102 WirelessA.Tclient101.wlan[0].radio radioMode:vector ETV
attr interpolationmode sample-hold
attr source radioModeChanged
attr title "Radio mode, vector"
vector 103 WirelessA.Tclient102.wlan[0].radio radioMode:vector ETV
attr interpolationmode sample-hold
attr source radioModeChanged
attr title "Radio mode, vector"
vector 104 WirelessA.Tclient103.wlan[0].radio radioMode:vector ETV
attr interpolationmode sample-hold
attr source radioModeChanged
attr title "Radio mode, vector"
vector 105 WirelessA.Tclient104.wlan[0].radio radioMode:vector ETV
attr interpolationmode sample-hold
attr source radioModeChanged
attr title "Radio mode, vector"
vector 106 WirelessA.Tclient105.wlan[0].radio radioMode:vector ETV
attr interpolationmode sample-hold
attr source radioModeChanged
attr title "Radio mode, vector"
vector 107 WirelessA.Tclient106.wlan[0].radio radioMode:vector ETV
attr interpolationmode sample-hold
attr source radioModeChanged
attr title "Radio mode, vector"
vector 108 WirelessA.Tclient107.wlan[0].radio radioMode:vector ETV
attr interpolationmode sample-hold
attr source radioModeChanged
attr title "Radio mode, vector"
vector 109 WirelessA.Tclient108.wlan[0].radio radioMode:vector ETV
attr interpolationmode sample-hold
attr source radioModeChanged
attr title "Radio mode, vector"
vector 110 WirelessA.Tclient109.wlan[0].radio radioMode:vector ETV
attr interpolationmode sample-hold
attr source radioModeChanged
attr title "Radio mode, vector"
vector 111 WirelessA.Tclient110.wlan[0].radio radioMode:vector ETV
attr interpolationmode sample-hold
attr source radioModeChanged
attr title "Radio mode, vector"
vector 112 WirelessA.Tclient111.wlan[0].radio radioMode:vector ETV
attr interpolationmode sample-hold
attr source radioModeChanged
attr title "Radio mode, vector"
vector 113 WirelessA.Tclient112.wlan[0].radio radioMode:vector ETV
attr interpolationmode sample-hold
attr source radioModeChanged
attr title "Radio mode, vector"
vector 114 WirelessA.Tclient113.wlan[0].radio radioMode:vector ETV
attr interpolationmode sample-hold
attr source radioModeChanged
attr title "Radio mode, vector"
vector 115 WirelessA.Tclient114.wlan[0].radio radioMode:vector ETV
attr interpolationmode sample-hold
attr source radioModeChanged
attr title "Radio mode, vector"
vector 116 WirelessA.Tclient115.wlan[0].radio radioMode:vector ETV
attr interpolationmode sample-hold
attr source radioModeChanged
attr title "Radio mode, vector"
vector 117 WirelessA.Tclient116.wlan[0].radio radioMode:vector ETV
attr interpolationmode sample-hold
attr source radioModeChanged
attr title "Radio mode, vector"
vector 118 WirelessA.Tclient117.wlan[0].radio radioMode:vector ETV
attr interpolationmode sample-hold
attr source radioModeChanged
attr title "Radio mode, vector"
vector 119 WirelessA.Tclient118.wlan[0].radio radioMode:vector ETV
attr interpolationmode sample-hold
attr source radioModeChanged
attr title "Radio mode, vector"
vector 120 WirelessA.Tclient119.wlan[0].radio radioMode:vector ETV
attr interpolationmode sample-hold
attr source radioModeChanged
attr title "Radio mode, vector"
vector 121 WirelessA.Tclient120.wlan[0].radio radioMode:vector ETV
attr interpolationmode sample-hold
attr source radioModeChanged
attr title "Radio mode, vector"
vector 122 WirelessA.Tclient121.wlan[0].radio radioMode:vector ETV
attr interpolationmode sample-hold
attr source radioModeChanged
attr title "Radio mode, vector"
vector 123 WirelessA.Tclient122.wlan[0].radio radioMode:vector ETV
attr interpolationmode sample-hold
attr source radioModeChanged
attr title "Radio mode, vector"
vector 124 WirelessA.Tclient123.wlan[0].radio radioMode:vector ETV
attr interpolationmode sample-hold
attr source radioModeChanged
attr title "Radio mode, vector"
vector 125 WirelessA.Tclient124.wlan[0].radio radioMode:vector ETV
attr interpolationmode sample-hold
attr source radioModeChanged
attr title "Radio mode, vector"
vector 126 WirelessA.Tclient125.wlan[0].radio radioMode:vector ETV
attr interpolationmode sample-hold
attr source radioModeChanged
attr title "Radio mode, vector"
vector 127 WirelessA.Tclient126.wlan[0].radio radioMode:vector ETV
attr interpolationmode sample-hold
attr source radioModeChanged
attr title "Radio mode, vector"
vector 128 WirelessA.Tclient127.wlan[0].radio radioMode:vector ETV
attr interpolationmode sample-hold
attr source radioModeChanged
attr title "Radio mode, vector"
vector 129 WirelessA.Tclient128.wlan[0].radio radioMode:vector ETV
attr interpolationmode sample-hold
attr source radioModeChanged
attr title "Radio mode, vector"
vector 130 WirelessA.Tclient129.wlan[0].radio radioMode:vector ETV
attr interpolationmode sample-hold
attr source radioModeChanged
attr title "Radio mode, vector"
vector 131 WirelessA.Tclient130.wlan[0].radio radioMode:vector ETV
attr interpolationmode sample-hold
attr source radioModeChanged
attr title "Radio mode, vector"
vector 132 WirelessA.Tclient131.wlan[0].radio radioMode:vector ETV
attr interpolationmode sample-hold
attr source radioModeChanged
attr title "Radio mode, vector"
vector 133 WirelessA.Tclient132.wlan[0].radio radioMode:vector ETV
attr interpolationmode sample-hold
attr source radioModeChanged
attr title "Radio mode, vector"
vector 134 WirelessA.Tclient133.wlan[0].radio radioMode:vector ETV
attr interpolationmode sample-hold
attr source radioModeChanged
attr title "Radio mode, vector"
vector 135 WirelessA.Tclient134.wlan[0].radio radioMode:vector ETV
attr interpolationmode sample-hold
attr source radioModeChanged
attr title "Radio mode, vector"
vector 136 WirelessA.Tclient135.wlan[0].radio radioMode:vector ETV
attr interpolationmode sample-hold
attr source radioModeChanged
attr title "Radio mode, vector"
vector 137 WirelessA.Tclient136.wlan[0].radio radioMode:vector ETV
attr interpolationmode sample-hold
attr source radioModeChanged
attr title "Radio mode, vector"
vector 138 WirelessA.Tclient137.wlan[0].radio radioMode:vector ETV
attr interpolationmode sample-hold
attr source radioModeChanged
attr title "Radio mode, vector"
vector 139 WirelessA.Tclient138.wlan[0].radio radioMode:vector ETV
attr interpolationmode sample-hold
attr source radioModeChanged
attr title "Radio mode, vector"
vector 140 WirelessA.Tclient139.wlan[0].radio radioMode:vector ETV
attr interpolationmode sample-hold
attr source radioModeChanged
attr title "Radio mode, vector"
vector 141 WirelessA.Tclient140.wlan[0].radio radioMode:vector ETV
attr interpolationmode sample-hold
attr source radioModeChanged
attr title "Radio mode, vector"
vector 142 WirelessA.Tclient141.wlan[0].radio radioMode:vector ETV
attr interpolationmode sample-hold
attr source radioModeChanged
attr title "Radio mode, vector"
vector 143 WirelessA.Tclient142.wlan[0].radio radioMode:vector ETV
attr interpolationmode sample-hold
attr source radioModeChanged
attr title "Radio mode, vector"
vector 144 WirelessA.Tclient143.wlan[0].radio radioMode:vector ETV
attr interpolationmode sample-hold
attr source radioModeChanged
attr title "Radio mode, vector"
vector 145 WirelessA.Tclient144.wlan[0].radio radioMode:vector ETV
attr interpolationmode sample-hold
attr source radioModeChanged
attr title "Radio mode, vector"
vector 146 WirelessA.Tclient145.wlan[0].radio radioMode:vector ETV
attr interpolationmode sample-hold
attr source radioModeChanged
attr title "Radio mode, vector"
vector 147 WirelessA.Tclient146.wlan[0].radio radioMode:vector ETV
attr interpolationmode sample-hold
attr source radioModeChanged
attr title "Radio mode, vector"
vector 148 WirelessA.Tclient147.wlan[0].radio radioMode:vector ETV
attr interpolationmode sample-hold
attr source radioModeChanged
attr title "Radio mode, vector"
vector 149 WirelessA.Tclient148.wlan[0].radio radioMode:vector ETV
attr interpolationmode sample-hold
attr source radioModeChanged
attr title "Radio mode, vector"
vector 150 WirelessA.Tclient149.wlan[0].radio radioMode:vector ETV
attr interpolationmode sample-hold
attr source radioModeChanged
attr title "Radio mode, vector"
vector 151 WirelessA.Tserveur.wlan[0].radio receptionState:vector ETV
attr interpolationmode sample-hold
attr source receptionStateChanged
attr title "Radio reception state, vector"
vector 152 WirelessA.Tclient.wlan[0].radio receptionState:vector ETV
attr interpolationmode sample-hold
attr source receptionStateChanged
attr title "Radio reception state, vector"
vector 153 WirelessA.Tclient1.wlan[0].radio receptionState:vector ETV
attr interpolationmode sample-hold
attr source receptionStateChanged
attr title "Radio reception state, vector"
vector 154 WirelessA.Tclient2.wlan[0].radio receptionState:vector ETV
attr interpolationmode sample-hold
attr source receptionStateChanged
attr title "Radio reception state, vector"
vector 155 WirelessA.Tclient3.wlan[0].radio receptionState:vector ETV
attr interpolationmode sample-hold
attr source receptionStateChanged
attr title "Radio reception state, vector"
vector 156 WirelessA.Tclient4.wlan[0].radio receptionState:vector ETV
attr interpolationmode sample-hold
attr source receptionStateChanged
attr title "Radio reception state, vector"
vector 157 WirelessA.Tclient5.wlan[0].radio receptionState:vector ETV
attr interpolationmode sample-hold
attr source receptionStateChanged
attr title "Radio reception state, vector"
vector 158 WirelessA.Tclient6.wlan[0].radio receptionState:vector ETV
attr interpolationmode sample-hold
attr source receptionStateChanged
attr title "Radio reception state, vector"
vector 159 WirelessA.Tclient7.wlan[0].radio receptionState:vector ETV
attr interpolationmode sample-hold
attr source receptionStateChanged
attr title "Radio reception state, vector"
vector 160 WirelessA.Tclient8.wlan[0].radio receptionState:vector ETV
attr interpolationmode sample-hold
attr source receptionStateChanged
attr title "Radio reception state, vector"
vector 161 WirelessA.Tclient9.wlan[0].radio receptionState:vector ETV
attr interpolationmode sample-hold
attr source receptionStateChanged
attr title "Radio reception state, vector"
vector 162 WirelessA.Tclient10.wlan[0].radio receptionState:vector ETV
attr interpolationmode sample-hold
attr source receptionStateChanged
attr title "Radio reception state, vector"
vector 163 WirelessA.Tclient11.wlan[0].radio receptionState:vector ETV
attr interpolationmode sample-hold
attr source receptionStateChanged
attr title "Radio reception state, vector"
vector 164 WirelessA.Tclient12.wlan[0].radio receptionState:vector ETV
attr interpolationmode sample-hold
attr source receptionStateChanged
attr title "Radio reception state, vector"
vector 165 WirelessA.Tclient13.wlan[0].radio receptionState:vector ETV
attr interpolationmode sample-hold
attr source receptionStateChanged
attr title "Radio reception state, vector"
vector 166 WirelessA.Tclient14.wlan[0].radio receptionState:vector ETV
attr interpolationmode sample-hold
attr source receptionStateChanged
attr title "Radio reception state, vector"
vector 167 WirelessA.Tclient15.wlan[0].radio receptionState:vector ETV
attr interpolationmode sample-hold
attr source receptionStateChanged
attr title "Radio reception state, vector"
vector 168 WirelessA.Tclient16.wlan[0].radio receptionState:vector ETV
attr interpolationmode sample-hold
attr source receptionStateChanged
attr title "Radio reception state, vector"
vector 169 WirelessA.Tclient17.wlan[0].radio receptionState:vector ETV
attr interpolationmode sample-hold
attr source receptionStateChanged
attr title "Radio reception state, vector"
vector 170 WirelessA.Tclient18.wlan[0].radio receptionState:vector ETV
attr interpolationmode sample-hold
attr source receptionStateChanged
attr title "Radio reception state, vector"
vector 171 WirelessA.Tclient19.wlan[0].radio receptionState:vector ETV
attr interpolationmode sample-hold
attr source receptionStateChanged
attr title "Radio reception state, vector"
vector 172 WirelessA.Tclient20.wlan[0].radio receptionState:vector ETV
attr interpolationmode sample-hold
attr source receptionStateChanged
attr title "Radio reception state, vector"
vector 173 WirelessA.Tclient21.wlan[0].radio receptionState:vector ETV
attr interpolationmode sample-hold
attr source receptionStateChanged
attr title "Radio reception state, vector"
vector 174 WirelessA.Tclient22.wlan[0].radio receptionState:vector ETV
attr interpolationmode sample-hold
attr source receptionStateChanged
attr title "Radio reception state, vector"
vector 175 WirelessA.Tclient23.wlan[0].radio receptionState:vector ETV
attr interpolationmode sample-hold
attr source receptionStateChanged
attr title "Radio reception state, vector"
vector 176 WirelessA.Tclient24.wlan[0].radio receptionState:vector ETV
attr interpolationmode sample-hold
attr source receptionStateChanged
attr title "Radio reception state, vector"
vector 177 WirelessA.Tclient25.wlan[0].radio receptionState:vector ETV
attr interpolationmode sample-hold
attr source receptionStateChanged
attr title "Radio reception state, vector"
vector 178 WirelessA.Tclient26.wlan[0].radio receptionState:vector ETV
attr interpolationmode sample-hold
attr source receptionStateChanged
attr title "Radio reception state, vector"
vector 179 WirelessA.Tclient27.wlan[0].radio receptionState:vector ETV
attr interpolationmode sample-hold
attr source receptionStateChanged
attr title "Radio reception state, vector"
vector 180 WirelessA.Tclient28.wlan[0].radio receptionState:vector ETV
attr interpolationmode sample-hold
attr source receptionStateChanged
attr title "Radio reception state, vector"
vector 181 WirelessA.Tclient29.wlan[0].radio receptionState:vector ETV
attr interpolationmode sample-hold
attr source receptionStateChanged
attr title "Radio reception state, vector"
vector 182 WirelessA.Tclient30.wlan[0].radio receptionState:vector ETV
attr interpolationmode sample-hold
attr source receptionStateChanged
attr title "Radio reception state, vector"
vector 183 WirelessA.Tclient31.wlan[0].radio receptionState:vector ETV
attr interpolationmode sample-hold
attr source receptionStateChanged
attr title "Radio reception state, vector"
vector 184 WirelessA.Tclient32.wlan[0].radio receptionState:vector ETV
attr interpolationmode sample-hold
attr source receptionStateChanged
attr title "Radio reception state, vector"
vector 185 WirelessA.Tclient33.wlan[0].radio receptionState:vector ETV
attr interpolationmode sample-hold
attr source receptionStateChanged
attr title "Radio reception state, vector"
vector 186 WirelessA.Tclient34.wlan[0].radio receptionState:vector ETV
attr interpolationmode sample-hold
attr source receptionStateChanged
attr title "Radio reception state, vector"
vector 187 WirelessA.Tclient35.wlan[0].radio receptionState:vector ETV
attr interpolationmode sample-hold
attr source receptionStateChanged
attr title "Radio reception state, vector"
vector 188 WirelessA.Tclient36.wlan[0].radio receptionState:vector ETV
attr interpolationmode sample-hold
attr source receptionStateChanged
attr title "Radio reception state, vector"
vector 189 WirelessA.Tclient37.wlan[0].radio receptionState:vector ETV
attr interpolationmode sample-hold
attr source receptionStateChanged
attr title "Radio reception state, vector"
vector 190 WirelessA.Tclient38.wlan[0].radio receptionState:vector ETV
attr interpolationmode sample-hold
attr source receptionStateChanged
attr title "Radio reception state, vector"
vector 191 WirelessA.Tclient39.wlan[0].radio receptionState:vector ETV
attr interpolationmode sample-hold
attr source receptionStateChanged
attr title "Radio reception state, vector"
vector 192 WirelessA.Tclient40.wlan[0].radio receptionState:vector ETV
attr interpolationmode sample-hold
attr source receptionStateChanged
attr title "Radio reception state, vector"
vector 193 WirelessA.Tclient41.wlan[0].radio receptionState:vector ETV
attr interpolationmode sample-hold
attr source receptionStateChanged
attr title "Radio reception state, vector"
vector 194 WirelessA.Tclient42.wlan[0].radio receptionState:vector ETV
attr interpolationmode sample-hold
attr source receptionStateChanged
attr title "Radio reception state, vector"
vector 195 WirelessA.Tclient43.wlan[0].radio receptionState:vector ETV
attr interpolationmode sample-hold
attr source receptionStateChanged
attr title "Radio reception state, vector"
vector 196 WirelessA.Tclient44.wlan[0].radio receptionState:vector ETV
attr interpolationmode sample-hold
attr source receptionStateChanged
attr title "Radio reception state, vector"
vector 197 WirelessA.Tclient45.wlan[0].radio receptionState:vector ETV
attr interpolationmode sample-hold
attr source receptionStateChanged
attr title "Radio reception state, vector"
vector 198 WirelessA.Tclient46.wlan[0].radio receptionState:vector ETV
attr interpolationmode sample-hold
attr source receptionStateChanged
attr title "Radio reception state, vector"
vector 199 WirelessA.Tclient47.wlan[0].radio receptionState:vector ETV
attr interpolationmode sample-hold
attr source receptionStateChanged
attr title "Radio reception state, vector"
vector 200 WirelessA.Tclient48.wlan[0].radio receptionState:vector ETV
attr interpolationmode sample-hold
attr source receptionStateChanged
attr title "Radio reception state, vector"
vector 201 WirelessA.Tclient49.wlan[0].radio receptionState:vector ETV
attr interpolationmode sample-hold
attr source receptionStateChanged
attr title "Radio reception state, vector"
vector 202 WirelessA.Tclient50.wlan[0].radio receptionState:vector ETV
attr interpolationmode sample-hold
attr source receptionStateChanged
attr title "Radio reception state, vector"
vector 203 WirelessA.Tclient51.wlan[0].radio receptionState:vector ETV
attr interpolationmode sample-hold
attr source receptionStateChanged
attr title "Radio reception state, vector"
vector 204 WirelessA.Tclient52.wlan[0].radio receptionState:vector ETV
attr interpolationmode sample-hold
attr source receptionStateChanged
attr title "Radio reception state, vector"
vector 205 WirelessA.Tclient53.wlan[0].radio receptionState:vector ETV
attr interpolationmode sample-hold
attr source receptionStateChanged
attr title "Radio reception state, vector"
vector 206 WirelessA.Tclient54.wlan[0].radio receptionState:vector ETV
attr interpolationmode sample-hold
attr source receptionStateChanged
attr title "Radio reception state, vector"
vector 207 WirelessA.Tclient55.wlan[0].radio receptionState:vector ETV
attr interpolationmode sample-hold
attr source receptionStateChanged
attr title "Radio reception state, vector"
vector 208 WirelessA.Tclient56.wlan[0].radio receptionState:vector ETV
attr interpolationmode sample-hold
attr source receptionStateChanged
attr title "Radio reception state, vector"
vector 209 WirelessA.Tclient57.wlan[0].radio receptionState:vector ETV
attr interpolationmode sample-hold
attr source receptionStateChanged
attr title "Radio reception state, vector"
vector 210 WirelessA.Tclient58.wlan[0].radio receptionState:vector ETV
attr interpolationmode sample-hold
attr source receptionStateChanged
attr title "Radio reception state, vector"
vector 211 WirelessA.Tclient59.wlan[0].radio receptionState:vector ETV
attr interpolationmode sample-hold
attr source receptionStateChanged
attr title "Radio reception state, vector"
vector 212 WirelessA.Tclient60.wlan[0].radio receptionState:vector ETV
attr interpolationmode sample-hold
attr source receptionStateChanged
attr title "Radio reception state, vector"
vector 213 WirelessA.Tclient61.wlan[0].radio receptionState:vector ETV
attr interpolationmode sample-hold
attr source receptionStateChanged
attr title "Radio reception state, vector"
vector 214 WirelessA.Tclient62.wlan[0].radio receptionState:vector ETV
attr interpolationmode sample-hold
attr source receptionStateChanged
attr title "Radio reception state, vector"
vector 215 WirelessA.Tclient63.wlan[0].radio receptionState:vector ETV
attr interpolationmode sample-hold
attr source receptionStateChanged
attr title "Radio reception state, vector"
vector 216 WirelessA.Tclient64.wlan[0].radio receptionState:vector ETV
attr interpolationmode sample-hold
attr source receptionStateChanged
attr title "Radio reception state, vector"
vector 217 WirelessA.Tclient65.wlan[0].radio receptionState:vector ETV
attr interpolationmode sample-hold
attr source receptionStateChanged
attr title "Radio reception state, vector"
vector 218 WirelessA.Tclient66.wlan[0].radio receptionState:vector ETV
attr interpolationmode sample-hold
attr source receptionStateChanged
attr title "Radio reception state, vector"
vector 219 WirelessA.Tclient67.wlan[0].radio receptionState:vector ETV
attr interpolationmode sample-hold
attr source receptionStateChanged
attr title "Radio reception state, vector"
vector 220 WirelessA.Tclient68.wlan[0].radio receptionState:vector ETV
attr interpolationmode sample-hold
attr source receptionStateChanged
attr title "Radio reception state, vector"
vector 221 WirelessA.Tclient69.wlan[0].radio receptionState:vector ETV
attr interpolationmode sample-hold
attr source receptionStateChanged
attr title "Radio reception state, vector"
vector 222 WirelessA.Tclient70.wlan[0].radio receptionState:vector ETV
attr interpolationmode sample-hold
attr source receptionStateChanged
attr title "Radio reception state, vector"
vector 223 WirelessA.Tclient71.wlan[0].radio receptionState:vector ETV
attr interpolationmode sample-hold
attr source receptionStateChanged
attr title "Radio reception state, vector"
vector 224 WirelessA.Tclient72.wlan[0].radio receptionState:vector ETV
attr interpolationmode sample-hold
attr source receptionStateChanged
attr title "Radio reception state, vector"
vector 225 WirelessA.Tclient73.wlan[0].radio receptionState:vector ETV
attr interpolationmode sample-hold
attr source receptionStateChanged
attr title "Radio reception state, vector"
vector 226 WirelessA.Tclient74.wlan[0].radio receptionState:vector ETV
attr interpolationmode sample-hold
attr source receptionStateChanged
attr title "Radio reception state, vector"
vector 227 WirelessA.Tclient75.wlan[0].radio receptionState:vector ETV
attr interpolationmode sample-hold
attr source receptionStateChanged
attr title "Radio reception state, vector"
vector 228 WirelessA.Tclient76.wlan[0].radio receptionState:vector ETV
attr interpolationmode sample-hold
attr source receptionStateChanged
attr title "Radio reception state, vector"
vector 229 WirelessA.Tclient77.wlan[0].radio receptionState:vector ETV
attr interpolationmode sample-hold
attr source receptionStateChanged
attr title "Radio reception state, vector"
vector 230 WirelessA.Tclient78.wlan[0].radio receptionState:vector ETV
attr interpolationmode sample-hold
attr source receptionStateChanged
attr title "Radio reception state, vector"
vector 231 WirelessA.Tclient79.wlan[0].radio receptionState:vector ETV
attr interpolationmode sample-hold
attr source receptionStateChanged
attr title "Radio reception state, vector"
vector 232 WirelessA.Tclient80.wlan[0].radio receptionState:vector ETV
attr interpolationmode sample-hold
attr source receptionStateChanged
attr title "Radio reception state, vector"
vector 233 WirelessA.Tclient81.wlan[0].radio receptionState:vector ETV
attr interpolationmode sample-hold
attr source receptionStateChanged
attr title "Radio reception state, vector"
vector 234 WirelessA.Tclient82.wlan[0].radio receptionState:vector ETV
attr interpolationmode sample-hold
attr source receptionStateChanged
attr title "Radio reception state, vector"
vector 235 WirelessA.Tclient83.wlan[0].radio receptionState:vector ETV
attr interpolationmode sample-hold
attr source receptionStateChanged
attr title "Radio reception state, vector"
vector 236 WirelessA.Tclient84.wlan[0].radio receptionState:vector ETV
attr interpolationmode sample-hold
attr source receptionStateChanged
attr title "Radio reception state, vector"
vector 237 WirelessA.Tclient85.wlan[0].radio receptionState:vector ETV
attr interpolationmode sample-hold
attr source receptionStateChanged
attr title "Radio reception state, vector"
vector 238 WirelessA.Tclient86.wlan[0].radio receptionState:vector ETV
attr interpolationmode sample-hold
attr source receptionStateChanged
attr title "Radio reception state, vector"
vector 239 WirelessA.Tclient87.wlan[0].radio receptionState:vector ETV
attr interpolationmode sample-hold
attr source receptionStateChanged
attr title "Radio reception state, vector"
vector 240 WirelessA.Tclient88.wlan[0].radio receptionState:vector ETV
attr interpolationmode sample-hold
attr source receptionStateChanged
attr title "Radio reception state, vector"
vector 241 WirelessA.Tclient89.wlan[0].radio receptionState:vector ETV
attr interpolationmode sample-hold
attr source receptionStateChanged
attr title "Radio reception state, vector"
vector 242 WirelessA.Tclient90.wlan[0].radio receptionState:vector ETV
attr interpolationmode sample-hold
attr source receptionStateChanged
attr title "Radio reception state, vector"
vector 243 WirelessA.Tclient91.wlan[0].radio receptionState:vector ETV
attr interpolationmode sample-hold
attr source receptionStateChanged
attr title "Radio reception state, vector"
vector 244 WirelessA.Tclient92.wlan[0].radio receptionState:vector ETV
attr interpolationmode sample-hold
attr source receptionStateChanged
attr title "Radio reception state, vector"
vector 245 WirelessA.Tclient93.wlan[0].radio receptionState:vector ETV
attr interpolationmode sample-hold
attr source receptionStateChanged
attr title "Radio reception state, vector"
vector 246 WirelessA.Tclient94.wlan[0].radio receptionState:vector ETV
attr interpolationmode sample-hold
attr source receptionStateChanged
attr title "Radio reception state, vector"
vector 247 WirelessA.Tclient95.wlan[0].radio receptionState:vector ETV
attr interpolationmode sample-hold
attr source receptionStateChanged
attr title "Radio reception state, vector"
vector 248 WirelessA.Tclient96.wlan[0].radio receptionState:vector ETV
attr interpolationmode sample-hold
attr source receptionStateChanged
attr title "Radio reception state, vector"
vector 249 WirelessA.Tclient97.wlan[0].radio receptionState:vector ETV
attr interpolationmode sample-hold
attr source receptionStateChanged
attr title "Radio reception state, vector"
vector 250 WirelessA.Tclient98.wlan[0].radio receptionState:vector ETV
attr interpolationmode sample-hold
attr source receptionStateChanged
attr title "Radio reception state, vector"
vector 251 WirelessA.Tclient99.wlan[0].radio receptionState:vector ETV
attr interpolationmode sample-hold
attr source receptionStateChanged
attr title "Radio reception state, vector"
vector 252 WirelessA.Tclient100.wlan[0].radio receptionState:vector ETV
attr interpolationmode sample-hold
attr source receptionStateChanged
attr title "Radio reception state, vector"
vector 253 WirelessA.Tclient101.wlan[0].radio receptionState:vector ETV
attr interpolationmode sample-hold
attr source receptionStateChanged
attr title "Radio reception state, vector"
vector 254 WirelessA.Tclient102.wlan[0].radio receptionState:vector ETV
attr interpolationmode sample-hold
attr source receptionStateChanged
attr title "Radio reception state, vector"
vector 255 WirelessA.Tclient103.wlan[0].radio receptionState:vector ETV
attr interpolationmode sample-hold
attr source receptionStateChanged
attr title "Radio reception state, vector"
vector 256 WirelessA.Tclient104.wlan[0].radio receptionState:vector ETV
attr interpolationmode sample-hold
attr source receptionStateChanged
attr title "Radio reception state, vector"
vector 257 WirelessA.Tclient105.wlan[0].radio receptionState:vector ETV
attr interpolationmode sample-hold
attr source receptionStateChanged
attr title "Radio reception state, vector"
vector 258 WirelessA.Tclient106.wlan[0].radio receptionState:vector ETV
attr interpolationmode sample-hold
attr source receptionStateChanged
attr title "Radio reception state, vector"
vector 259 WirelessA.Tclient107.wlan[0].radio receptionState:vector ETV
attr interpolationmode sample-hold
attr source receptionStateChanged
attr title "Radio reception state, vector"
vector 260 WirelessA.Tclient108.wlan[0].radio receptionState:vector ETV
attr interpolationmode sample-hold
attr source receptionStateChanged
attr title "Radio reception state, vector"
vector 261 WirelessA.Tclient109.wlan[0].radio receptionState:vector ETV
attr interpolationmode sample-hold
attr source receptionStateChanged
attr title "Radio reception state, vector"
vector 262 WirelessA.Tclient110.wlan[0].radio receptionState:vector ETV
attr interpolationmode sample-hold
attr source receptionStateChanged
attr title "Radio reception state, vector"
vector 263 WirelessA.Tclient111.wlan[0].radio receptionState:vector ETV
attr interpolationmode sample-hold
attr source receptionStateChanged
attr title "Radio reception state, vector"
vector 264 WirelessA.Tclient112.wlan[0].radio receptionState:vector ETV
attr interpolationmode sample-hold
attr source receptionStateChanged
attr title "Radio reception state, vector"
vector 265 WirelessA.Tclient113.wlan[0].radio receptionState:vector ETV
attr interpolationmode sample-hold
attr source receptionStateChanged
attr title "Radio reception state, vector"
vector 266 WirelessA.Tclient114.wlan[0].radio receptionState:vector ETV
attr interpolationmode sample-hold
attr source receptionStateChanged
attr title "Radio reception state, vector"
vector 267 WirelessA.Tclient115.wlan[0].radio receptionState:vector ETV
attr interpolationmode sample-hold
attr source receptionStateChanged
attr title "Radio reception state, vector"
vector 268 WirelessA.Tclient116.wlan[0].radio receptionState:vector ETV
attr interpolationmode sample-hold
attr source receptionStateChanged
attr title "Radio reception state, vector"
vector 269 WirelessA.Tclient117.wlan[0].radio receptionState:vector ETV
attr interpolationmode sample-hold
attr source receptionStateChanged
attr title "Radio reception state, vector"
vector 270 WirelessA.Tclient118.wlan[0].radio receptionState:vector ETV
attr interpolationmode sample-hold
attr source receptionStateChanged
attr title "Radio reception state, vector"
vector 271 WirelessA.Tclient119.wlan[0].radio receptionState:vector ETV
attr interpolationmode sample-hold
attr source receptionStateChanged
attr title "Radio reception state, vector"
vector 272 WirelessA.Tclient120.wlan[0].radio receptionState:vector ETV
attr interpolationmode sample-hold
attr source receptionStateChanged
attr title "Radio reception state, vector"
vector 273 WirelessA.Tclient121.wlan[0].radio receptionState:vector ETV
attr interpolationmode sample-hold
attr source receptionStateChanged
attr title "Radio reception state, vector"
vector 274 WirelessA.Tclient122.wlan[0].radio receptionState:vector ETV
attr interpolationmode sample-hold
attr source receptionStateChanged
attr title "Radio reception state, vector"
vector 275 WirelessA.Tclient123.wlan[0].radio receptionState:vector ETV
attr interpolationmode sample-hold
attr source receptionStateChanged
attr title "Radio reception state, vector"
vector 276 WirelessA.Tclient124.wlan[0].radio receptionState:vector ETV
attr interpolationmode sample-hold
attr source receptionStateChanged
attr title "Radio reception state, vector"
vector 277 WirelessA.Tclient125.wlan[0].radio receptionState:vector ETV
attr interpolationmode sample-hold
attr source receptionStateChanged
attr title "Radio reception state, vector"
vector 278 WirelessA.Tclient126.wlan[0].radio receptionState:vector ETV
attr interpolationmode sample-hold
attr source receptionStateChanged
attr title "Radio reception state, vector"
vector 279 WirelessA.Tclient127.wlan[0].radio receptionState:vector ETV
attr interpolationmode sample-hold
attr source receptionStateChanged
attr title "Radio reception state, vector"
vector 280 WirelessA.Tclient128.wlan[0].radio receptionState:vector ETV
attr interpolationmode sample-hold
attr source receptionStateChanged
attr title "Radio reception state, vector"
vector 281 WirelessA.Tclient129.wlan[0].radio receptionState:vector ETV
attr interpolationmode sample-hold
attr source receptionStateChanged
attr title "Radio reception state, vector"
vector 282 WirelessA.Tclient130.wlan[0].radio receptionState:vector ETV
attr interpolationmode sample-hold
attr source receptionStateChanged
attr title "Radio reception state, vector"
vector 283 WirelessA.Tclient131.wlan[0].radio receptionState:vector ETV
attr interpolationmode sample-hold
attr source receptionStateChanged
attr title "Radio reception state, vector"
vector 284 WirelessA.Tclient132.wlan[0].radio receptionState:vector ETV
attr interpolationmode sample-hold
attr source receptionStateChanged
attr title "Radio reception state, vector"
vector 285 WirelessA.Tclient133.wlan[0].radio receptionState:vector ETV
attr interpolationmode sample-hold
attr source receptionStateChanged
attr title "Radio reception state, vector"
vector 286 WirelessA.Tclient134.wlan[0].radio receptionState:vector ETV
attr interpolationmode sample-hold
attr source receptionStateChanged
attr title "Radio reception state, vector"
vector 287 WirelessA.Tclient135.wlan[0].radio receptionState:vector ETV
attr interpolationmode sample-hold
attr source receptionStateChanged
attr title "Radio reception state, vector"
vector 288 WirelessA.Tclient136.wlan[0].radio receptionState:vector ETV
attr interpolationmode sample-hold
attr source receptionStateChanged
attr title "Radio reception state, vector"
vector 289 WirelessA.Tclient137.wlan[0].radio receptionState:vector ETV
attr interpolationmode sample-hold
attr source receptionStateChanged
attr title "Radio reception state, vector"
vector 290 WirelessA.Tclient138.wlan[0].radio receptionState:vector ETV
attr interpolationmode sample-hold
attr source receptionStateChanged
attr title "Radio reception state, vector"
vector 291 WirelessA.Tclient139.wlan[0].radio receptionState:vector ETV
attr interpolationmode sample-hold
attr source receptionStateChanged
attr title "Radio reception state, vector"
vector 292 WirelessA.Tclient140.wlan[0].radio receptionState:vector ETV
attr interpolationmode sample-hold
attr source receptionStateChanged
attr title "Radio reception state, vector"
vector 293 WirelessA.Tclient141.wlan[0].radio receptionState:vector ETV
attr interpolationmode sample-hold
attr source receptionStateChanged
attr title "Radio reception state, vector"
vector 294 WirelessA.Tclient142.wlan[0].radio receptionState:vector ETV
attr interpolationmode sample-hold
attr source receptionStateChanged
attr title "Radio reception state, vector"
vector 295 WirelessA.Tclient143.wlan[0].radio receptionState:vector ETV
attr interpolationmode sample-hold
attr source receptionStateChanged
attr title "Radio reception state, vector"
vector 296 WirelessA.Tclient144.wlan[0].radio receptionState:vector ETV
attr interpolationmode sample-hold
attr source receptionStateChanged
attr title "Radio reception state, vector"
vector 297 WirelessA.Tclient145.wlan[0].radio receptionState:vector ETV
attr interpolationmode sample-hold
attr source receptionStateChanged
attr title "Radio reception state, vector"
vector 298 WirelessA.Tclient146.wlan[0].radio receptionState:vector ETV
attr interpolationmode sample-hold
attr source receptionStateChanged
attr title "Radio reception state, vector"
vector 299 WirelessA.Tclient147.wlan[0].radio receptionState:vector ETV
attr interpolationmode sample-hold
attr source receptionStateChanged
attr title "Radio reception state, vector"
vector 300 WirelessA.Tclient148.wlan[0].radio receptionState:vector ETV
attr interpolationmode sample-hold
attr source receptionStateChanged
attr title "Radio reception state, vector"
vector 301 WirelessA.Tclient149.wlan[0].radio receptionState:vector ETV
attr interpolationmode sample-hold
attr source receptionStateChanged
attr title "Radio reception state, vector"
vector 302 WirelessA.Tserveur.app[0] packetSent:vector(packetBytes) ETV
attr interpolationmode none
attr source packetSent
attr title "packets sent, vector(packetBytes)"
vector 303 WirelessA.Tserveur.udp packetSent:vector(packetBytes) ETV
attr interpolationmode none
attr source packetSent
attr title "packets sent, vector(packetBytes)"
vector 304 WirelessA.Tserveur.wlan[0].mac rcvdPkFromHl:vector(packetBytes) ETV
attr interpolationmode none
attr source packetReceivedFromUpper
attr title "packets received from higher layer, vector(packetBytes)"
vector 305 WirelessA.Tserveur.wlan[0].mac.queue packetPushed:vector(packetBytes) ETV
attr interpolationmode none
attr title "packet pushed, vector(packetBytes)"
vector 306 WirelessA.Tserveur.wlan[0].mac.queue queueLength:vector ETV
attr interpolationmode sample-hold
attr source "count(packetPushed) - count(packetPopped) - count(packetRemoved) - count(packetDropped)"
attr title "queue length, vector"
vector 307 WirelessA.Tserveur.wlan[0].mac.queue packetPopped:vector(packetBytes) ETV
attr interpolationmode none
attr title "packet popped, vector(packetBytes)"
vector 308 WirelessA.Tserveur.wlan[0].mac.queue queueingTime:vector ETV
attr interpolationmode none
attr source queueingTime(packetPopped)
attr title "queueing times, vector"
attr unit s
vector 309 WirelessA.Tserveur.wlan[0].radio transmissionState:vector ETV
attr interpolationmode sample-hold
attr source transmissionStateChanged
attr title "Radio transmission state, vector"
vector 310 WirelessA.Tserveur.wlan[0].mac sentDownPk:vector(packetBytes) ETV
attr interpolationmode none
attr source packetSentToLower
attr title "packets sent to lower layer, vector(packetBytes)"
vector 311 WirelessA.Tclient75.wlan[0].mac rcvdPkFromLl:vector(packetBytes) ETV
attr interpolationmode none
attr source packetReceivedFromLower
attr title "packets received from lower layer, vector(packetBytes)"
vector 312 WirelessA.Tclient75.wlan[0].mac packetDropNotAddressedToUs:vector(packetBytes) ETV
attr interpolationmode none
attr source packetDropReasonIsNotAddressedToUs(packetDropped)
attr title "packet drop: not addressed to us, vector(packetBytes)"
vector 313 WirelessA.Tclient32.wlan[0].mac rcvdPkFromLl:vector(packetBytes) ETV
attr interpolationmode none
attr source packetReceivedFromLower
attr title "packets received from lower layer, vector(packetBytes)"
vector 314 WirelessA.Tclient32.wlan[0].mac packetDropNotAddressedToUs:vector(packetBytes) ETV
attr interpolationmode none
attr source packetDropReasonIsNotAddressedToUs(packetDropped)
attr title "packet drop: not addressed to us, vector(packetBytes)"
vector 315 WirelessA.Tclient72.wlan[0].mac rcvdPkFromLl:vector(packetBytes) ETV
attr interpolationmode none
attr source packetReceivedFromLower
attr title "packets received from lower layer, vector(packetBytes)"
vector 316 WirelessA.Tclient72.wlan[0].mac packetDropNotAddressedToUs:vector(packetBytes) ETV
attr interpolationmode none
attr source packetDropReasonIsNotAddressedToUs(packetDropped)
attr title "packet drop: not addressed to us, vector(packetBytes)"
vector 317 WirelessA.Tclient2.wlan[0].mac rcvdPkFromLl:vector(packetBytes) ETV
attr interpolationmode none
attr source packetReceivedFromLower
attr title "packets received from lower layer, vector(packetBytes)"
vector 318 WirelessA.Tclient2.wlan[0].mac packetDropNotAddressedToUs:vector(packetBytes) ETV
attr interpolationmode none
attr source packetDropReasonIsNotAddressedToUs(packetDropped)
attr title "packet drop: not addressed to us, vector(packetBytes)"
vector 319 WirelessA.Tclient38.wlan[0].mac rcvdPkFromLl:vector(packetBytes) ETV
attr interpolationmode none
attr source packetReceivedFromLower
attr title "packets received from lower layer, vector(packetBytes)"
vector 320 WirelessA.Tclient38.wlan[0].mac packetDropNotAddressedToUs:vector(packetBytes) ETV
attr interpolationmode none
attr source packetDropReasonIsNotAddressedToUs(packetDropped)
attr title "packet drop: not addressed to us, vector(packetBytes)"
vector 321 WirelessA.Tclient94.wlan[0].mac rcvdPkFromLl:vector(packetBytes) ETV
attr interpolationmode none
attr source packetReceivedFromLower
attr title "packets received from lower layer, vector(packetBytes)"
vector 322 WirelessA.Tclient94.wlan[0].mac packetDropNotAddressedToUs:vector(packetBytes) ETV
attr interpolationmode none
attr source packetDropReasonIsNotAddressedToUs(packetDropped)
attr title "packet drop: not addressed to us, vector(packetBytes)"
vector 323 WirelessA.Tclient82.wlan[0].mac rcvdPkFromLl:vector(packetBytes) ETV
attr interpolationmode none
attr source packetReceivedFromLower
attr title "packets received from lower layer, vector(packetBytes)"
vector 324 WirelessA.Tclient82.wlan[0].mac packetDropNotAddressedToUs:vector(packetBytes) ETV
attr interpolationmode none
attr source packetDropReasonIsNotAddressedToUs(packetDropped)
attr title "packet drop: not addressed to us, vector(packetBytes)"
vector 325 WirelessA.Tclient28.wlan[0].mac rcvdPkFromLl:vector(packetBytes) ETV
attr interpolationmode none
attr source packetReceivedFromLower
attr title "packets received from lower layer, vector(packetBytes)"
vector 326 WirelessA.Tclient28.wlan[0].mac packetDropNotAddressedToUs:vector(packetBytes) ETV
attr interpolationmode none
attr source packetDropReasonIsNotAddressedToUs(packetDropped)
attr title "packet drop: not addressed to us, vector(packetBytes)"
vector 327 WirelessA.Tclient41.wlan[0].mac rcvdPkFromLl:vector(packetBytes) ETV
attr interpolationmode none
attr source packetReceivedFromLower
attr title "packets received from lower layer, vector(packetBytes)"
vector 328 WirelessA.Tclient41.wlan[0].mac packetDropNotAddressedToUs:vector(packetBytes) ETV
attr interpolationmode none
attr source packetDropReasonIsNotAddressedToUs(packetDropped)
attr title "packet drop: not addressed to us, vector(packetBytes)"
vector 329 WirelessA.Tclient30.wlan[0].mac rcvdPkFromLl:vector(packetBytes) ETV
attr interpolationmode none
attr source packetReceivedFromLower
attr title "packets received from lower layer, vector(packetBytes)"
vector 330 WirelessA.Tclient30.wlan[0].mac packetDropNotAddressedToUs:vector(packetBytes) ETV
attr interpolationmode none
attr source packetDropReasonIsNotAddressedToUs(packetDropped)
attr title "packet drop: not addressed to us, vector(packetBytes)"
vector 331 WirelessA.Tclient71.wlan[0].mac rcvdPkFromLl:vector(packetBytes) ETV
attr interpolationmode none
attr source packetReceivedFromLower
attr title "packets received from lower layer, vector(packetBytes)"
vector 332 WirelessA.Tclient71.wlan[0].mac packetDropNotAddressedToUs:vector(packetBytes) ETV
attr interpolationmode none
attr source packetDropReasonIsNotAddressedToUs(packetDropped)
attr title "packet drop: not addressed to us, vector(packetBytes)"
vector 333 WirelessA.Tclient44.wlan[0].mac rcvdPkFromLl:vector(packetBytes) ETV
attr interpolationmode none
attr source packetReceivedFromLower
attr title "packets received from lower layer, vector(packetBytes)"
vector 334 WirelessA.Tclient44.wlan[0].mac packetDropNotAddressedToUs:vector(packetBytes) ETV
attr interpolationmode none
attr source packetDropReasonIsNotAddressedToUs(packetDropped)
attr title "packet drop: not addressed to us, vector(packetBytes)"
vector 335 WirelessA.Tclient31.wlan[0].mac rcvdPkFromLl:vector(packetBytes) ETV
attr interpolationmode none
attr source packetReceivedFromLower
attr title "packets received from lower layer, vector(packetBytes)"
vector 336 WirelessA.Tclient31.wlan[0].mac packetDropNotAddressedToUs:vector(packetBytes) ETV
attr interpolationmode none
attr source packetDropReasonIsNotAddressedToUs(packetDropped)
attr title "packet drop: not addressed to us, vector(packetBytes)"
vector 337 WirelessA.Tclient7.wlan[0].mac rcvdPkFromLl:vector(packetBytes) ETV
attr interpolationmode none
attr source packetReceivedFromLower
attr title "packets received from lower layer, vector(packetBytes)"
vector 338 WirelessA.Tclient7.wlan[0].mac packetDropNotAddressedToUs:vector(packetBytes) ETV
attr interpolationmode none
attr source packetDropReasonIsNotAddressedToUs(packetDropped)
attr title "packet drop: not addressed to us, vector(packetBytes)"
vector 339 WirelessA.Tclient81.wlan[0].mac rcvdPkFromLl:vector(packetBytes) ETV
attr interpolationmode none
attr source packetReceivedFromLower
attr title "packets received from lower layer, vector(packetBytes)"
vector 340 WirelessA.Tclient81.wlan[0].mac packetDropNotAddressedToUs:vector(packetBytes) ETV
attr interpolationmode none
attr source packetDropReasonIsNotAddressedToUs(packetDropped)
attr title "packet drop: not addressed to us, vector(packetBytes)"
vector 341 WirelessA.Tclient4.wlan[0].mac rcvdPkFromLl:vector(packetBytes) ETV
attr interpolationmode none
attr source packetReceivedFromLower
attr title "packets received from lower layer, vector(packetBytes)"
vector 342 WirelessA.Tclient4.wlan[0].mac packetDropNotAddressedToUs:vector(packetBytes) ETV
attr interpolationmode none
attr source packetDropReasonIsNotAddressedToUs(packetDropped)
attr title "packet drop: not addressed to us, vector(packetBytes)"
vector 343 WirelessA.Tclient8.wlan[0].mac rcvdPkFromLl:vector(packetBytes) ETV
attr interpolationmode none
attr source packetReceivedFromLower
attr title "packets received from lower layer, vector(packetBytes)"
vector 344 WirelessA.Tclient8.wlan[0].mac packetDropNotAddressedToUs:vector(packetBytes) ETV
attr interpolationmode none
attr source packetDropReasonIsNotAddressedToUs(packetDropped)
attr title "packet drop: not addressed to us, vector(packetBytes)"
vector 345 WirelessA.Tclient29.wlan[0].mac rcvdPkFromLl:vector(packetBytes) ETV
attr interpolationmode none
attr source packetReceivedFromLower
attr title "packets received from lower layer, vector(packetBytes)"
vector 346 WirelessA.Tclient29.wlan[0].mac packetDropNotAddressedToUs:vector(packetBytes) ETV
attr interpolationmode none
attr source packetDropReasonIsNotAddressedToUs(packetDropped)
attr title "packet drop: not addressed to us, vector(packetBytes)"
vector 347 WirelessA.Tclient9.wlan[0].mac rcvdPkFromLl:vector(packetBytes) ETV
attr interpolationmode none
attr source packetReceivedFromLower
attr title "packets received from lower layer, vector(packetBytes)"
vector 348 WirelessA.Tclient9.wlan[0].mac packetDropNotAddressedToUs:vector(packetBytes) ETV
attr interpolationmode none
attr source packetDropReasonIsNotAddressedToUs(packetDropped)
attr title "packet drop: not addressed to us, vector(packetBytes)"
vector 349 WirelessA.Tclient24.wlan[0].mac rcvdPkFromLl:vector(packetBytes) ETV
attr interpolationmode none
attr source packetReceivedFromLower
attr title "packets received from lower layer, vector(packetBytes)"
vector 350 WirelessA.Tclient24.wlan[0].mac packetDropNotAddressedToUs:vector(packetBytes) ETV
attr interpolationmode none
attr source packetDropReasonIsNotAddressedToUs(packetDropped)
attr title "packet drop: not addressed to us, vector(packetBytes)"
vector 351 WirelessA.Tclient27.wlan[0].mac rcvdPkFromLl:vector(packetBytes) ETV
attr interpolationmode none
attr source packetReceivedFromLower
attr title "packets received from lower layer, vector(packetBytes)"
vector 352 WirelessA.Tclient27.wlan[0].mac packetDropNotAddressedToUs:vector(packetBytes) ETV
attr interpolationmode none
attr source packetDropReasonIsNotAddressedToUs(packetDropped)
attr title "packet drop: not addressed to us, vector(packetBytes)"
vector 353 WirelessA.Tclient45.wlan[0].mac rcvdPkFromLl:vector(packetBytes) ETV
attr interpolationmode none
attr source packetReceivedFromLower
attr title "packets received from lower layer, vector(packetBytes)"
vector 354 WirelessA.Tclient45.wlan[0].mac packetDropNotAddressedToUs:vector(packetBytes) ETV
attr interpolationmode none
attr source packetDropReasonIsNotAddressedToUs(packetDropped)
attr title "packet drop: not addressed to us, vector(packetBytes)"
vector 355 WirelessA.Tclient6.wlan[0].mac rcvdPkFromLl:vector(packetBytes) ETV
attr interpolationmode none
attr source packetReceivedFromLower
attr title "packets received from lower layer, vector(packetBytes)"
vector 356 WirelessA.Tclient6.wlan[0].mac packetDropNotAddressedToUs:vector(packetBytes) ETV
attr interpolationmode none
attr source packetDropReasonIsNotAddressedToUs(packetDropped)
attr title "packet drop: not addressed to us, vector(packetBytes)"
vector 357 WirelessA.Tclient35.wlan[0].mac rcvdPkFromLl:vector(packetBytes) ETV
attr interpolationmode none
attr source packetReceivedFromLower
attr title "packets received from lower layer, vector(packetBytes)"
vector 358 WirelessA.Tclient35.wlan[0].mac packetDropNotAddressedToUs:vector(packetBytes) ETV
attr interpolationmode none
attr source packetDropReasonIsNotAddressedToUs(packetDropped)
attr title "packet drop: not addressed to us, vector(packetBytes)"
vector 359 WirelessA.Tclient78.wlan[0].mac rcvdPkFromLl:vector(packetBytes) ETV
attr interpolationmode none
attr source packetReceivedFromLower
attr title "packets received from lower layer, vector(packetBytes)"
vector 360 WirelessA.Tclient78.wlan[0].mac packetDropNotAddressedToUs:vector(packetBytes) ETV
attr interpolationmode none
attr source packetDropReasonIsNotAddressedToUs(packetDropped)
attr title "packet drop: not addressed to us, vector(packetBytes)"
vector 361 WirelessA.Tclient5.wlan[0].mac rcvdPkFromLl:vector(packetBytes) ETV
attr interpolationmode none
attr source packetReceivedFromLower
attr title "packets received from lower layer, vector(packetBytes)"
vector 362 WirelessA.Tclient5.wlan[0].mac packetDropNotAddressedToUs:vector(packetBytes) ETV
attr interpolationmode none
attr source packetDropReasonIsNotAddressedToUs(packetDropped)
attr title "packet drop: not addressed to us, vector(packetBytes)"
vector 363 WirelessA.Tclient91.wlan[0].mac rcvdPkFromLl:vector(packetBytes) ETV
attr interpolationmode none
attr source packetReceivedFromLower
attr title "packets received from lower layer, vector(packetBytes)"
vector 364 WirelessA.Tclient91.wlan[0].mac packetDropNotAddressedToUs:vector(packetBytes) ETV
attr interpolationmode none
attr source packetDropReasonIsNotAddressedToUs(packetDropped)
attr title "packet drop: not addressed to us, vector(packetBytes)"
vector 365 WirelessA.Tclient76.wlan[0].mac rcvdPkFromLl:vector(packetBytes) ETV
attr interpolationmode none
attr source packetReceivedFromLower
attr title "packets received from lower layer, vector(packetBytes)"
vector 366 WirelessA.Tclient76.wlan[0].mac packetDropNotAddressedToUs:vector(packetBytes) ETV
attr interpolationmode none
attr source packetDropReasonIsNotAddressedToUs(packetDropped)
attr title "packet drop: not addressed to us, vector(packetBytes)"
vector 367 WirelessA.Tclient36.wlan[0].mac rcvdPkFromLl:vector(packetBytes) ETV
attr interpolationmode none
attr source packetReceivedFromLower
attr title "packets received from lower layer, vector(packetBytes)"
vector 368 WirelessA.Tclient36.wlan[0].mac packetDropNotAddressedToUs:vector(packetBytes) ETV
attr interpolationmode none
attr source packetDropReasonIsNotAddressedToUs(packetDropped)
attr title "packet drop: not addressed to us, vector(packetBytes)"
vector 369 WirelessA.Tclient3.wlan[0].mac rcvdPkFromLl:vector(packetBytes) ETV
attr interpolationmode none
attr source packetReceivedFromLower
attr title "packets received from lower layer, vector(packetBytes)"
vector 370 WirelessA.Tclient3.wlan[0].mac packetDropNotAddressedToUs:vector(packetBytes) ETV
attr interpolationmode none
attr source packetDropReasonIsNotAddressedToUs(packetDropped)
attr title "packet drop: not addressed to us, vector(packetBytes)"
vector 371 WirelessA.Tclient1.wlan[0].mac rcvdPkFromLl:vector(packetBytes) ETV
attr interpolationmode none
attr source packetReceivedFromLower
attr title "packets received from lower layer, vector(packetBytes)"
vector 372 WirelessA.Tclient1.wlan[0].mac packetDropNotAddressedToUs:vector(packetBytes) ETV
attr interpolationmode none
attr source packetDropReasonIsNotAddressedToUs(packetDropped)
attr title "packet drop: not addressed to us, vector(packetBytes)"
vector 373 WirelessA.Tclient77.wlan[0].mac rcvdPkFromLl:vector(packetBytes) ETV
attr interpolationmode none
attr source packetReceivedFromLower
attr title "packets received from lower layer, vector(packetBytes)"
vector 374 WirelessA.Tclient77.wlan[0].mac packetDropNotAddressedToUs:vector(packetBytes) ETV
attr interpolationmode none
attr source packetDropReasonIsNotAddressedToUs(packetDropped)
attr title "packet drop: not addressed to us, vector(packetBytes)"
vector 375 WirelessA.Tclient11.wlan[0].mac rcvdPkFromLl:vector(packetBytes) ETV
attr interpolationmode none
attr source packetReceivedFromLower
attr title "packets received from lower layer, vector(packetBytes)"
vector 376 WirelessA.Tclient11.wlan[0].mac packetDropNotAddressedToUs:vector(packetBytes) ETV
attr interpolationmode none
attr source packetDropReasonIsNotAddressedToUs(packetDropped)
attr title "packet drop: not addressed to us, vector(packetBytes)"
vector 377 WirelessA.Tclient68.wlan[0].mac rcvdPkFromLl:vector(packetBytes) ETV
attr interpolationmode none
attr source packetReceivedFromLower
attr title "packets received from lower layer, vector(packetBytes)"
vector 378 WirelessA.Tclient68.wlan[0].mac packetDropNotAddressedToUs:vector(packetBytes) ETV
attr interpolationmode none
attr source packetDropReasonIsNotAddressedToUs(packetDropped)
attr title "packet drop: not addressed to us, vector(packetBytes)"
vector 379 WirelessA.Tclient73.wlan[0].mac rcvdPkFromLl:vector(packetBytes) ETV
attr interpolationmode none
attr source packetReceivedFromLower
attr title "packets received from lower layer, vector(packetBytes)"
vector 380 WirelessA.Tclient73.wlan[0].mac packetDropNotAddressedToUs:vector(packetBytes) ETV
attr interpolationmode none
attr source packetDropReasonIsNotAddressedToUs(packetDropped)
attr title "packet drop: not addressed to us, vector(packetBytes)"
vector 381 WirelessA.Tclient93.wlan[0].mac rcvdPkFromLl:vector(packetBytes) ETV
attr interpolationmode none
attr source packetReceivedFromLower
attr title "packets received from lower layer, vector(packetBytes)"
vector 382 WirelessA.Tclient93.wlan[0].mac packetDropNotAddressedToUs:vector(packetBytes) ETV
attr interpolationmode none
attr source packetDropReasonIsNotAddressedToUs(packetDropped)
attr title "packet drop: not addressed to us, vector(packetBytes)"
vector 383 WirelessA.Tclient10.wlan[0].mac rcvdPkFromLl:vector(packetBytes) ETV
attr interpolationmode none
attr source packetReceivedFromLower
attr title "packets received from lower layer, vector(packetBytes)"
vector 384 WirelessA.Tclient10.wlan[0].mac packetDropNotAddressedToUs:vector(packetBytes) ETV
attr interpolationmode none
attr source packetDropReasonIsNotAddressedToUs(packetDropped)
attr title "packet drop: not addressed to us, vector(packetBytes)"
vector 385 WirelessA.Tclient39.wlan[0].mac rcvdPkFromLl:vector(packetBytes) ETV
attr interpolationmode none
attr source packetReceivedFromLower
attr title "packets received from lower layer, vector(packetBytes)"
vector 386 WirelessA.Tclient39.wlan[0].mac packetDropNotAddressedToUs:vector(packetBytes) ETV
attr interpolationmode none
attr source packetDropReasonIsNotAddressedToUs(packetDropped)
attr title "packet drop: not addressed to us, vector(packetBytes)"
vector 387 WirelessA.Tclient125.wlan[0].mac rcvdPkFromLl:vector(packetBytes) ETV
attr interpolationmode none
attr source packetReceivedFromLower
attr title "packets received from lower layer, vector(packetBytes)"
vector 388 WirelessA.Tclient125.wlan[0].mac packetDropNotAddressedToUs:vector(packetBytes) ETV
attr interpolationmode none
attr source packetDropReasonIsNotAddressedToUs(packetDropped)
attr title "packet drop: not addressed to us, vector(packetBytes)"
vector 389 WirelessA.Tclient.wlan[0].mac rcvdPkFromLl:vector(packetBytes) ETV
attr interpolationmode none
attr source packetReceivedFromLower
attr title "packets received from lower layer, vector(packetBytes)"
vector 390 WirelessA.Tclient.wlan[0].mac packetDropNotAddressedToUs:vector(packetBytes) ETV
attr interpolationmode none
attr source packetDropReasonIsNotAddressedToUs(packetDropped)
attr title "packet drop: not addressed to us, vector(packetBytes)"
vector 391 WirelessA.Tclient85.wlan[0].mac rcvdPkFromLl:vector(packetBytes) ETV
attr interpolationmode none
attr source packetReceivedFromLower
attr title "packets received from lower layer, vector(packetBytes)"
vector 392 WirelessA.Tclient85.wlan[0].mac packetDropNotAddressedToUs:vector(packetBytes) ETV
attr interpolationmode none
attr source packetDropReasonIsNotAddressedToUs(packetDropped)
attr title "packet drop: not addressed to us, vector(packetBytes)"
vector 393 WirelessA.Tclient62.wlan[0].mac rcvdPkFromLl:vector(packetBytes) ETV
attr interpolationmode none
attr source packetReceivedFromLower
attr title "packets received from lower layer, vector(packetBytes)"
vector 394 WirelessA.Tclient62.wlan[0].mac packetDropNotAddressedToUs:vector(packetBytes) ETV
attr interpolationmode none
attr source packetDropReasonIsNotAddressedToUs(packetDropped)
attr title "packet drop: not addressed to us, vector(packetBytes)"
vector 395 WirelessA.Tclient139.wlan[0].mac rcvdPkFromLl:vector(packetBytes) ETV
attr interpolationmode none
attr source packetReceivedFromLower
attr title "packets received from lower layer, vector(packetBytes)"
vector 396 WirelessA.Tclient139.wlan[0].mac packetDropNotAddressedToUs:vector(packetBytes) ETV
attr interpolationmode none
attr source packetDropReasonIsNotAddressedToUs(packetDropped)
attr title "packet drop: not addressed to us, vector(packetBytes)"
vector 397 WirelessA.Tclient83.wlan[0].mac rcvdPkFromLl:vector(packetBytes) ETV
attr interpolationmode none
attr source packetReceivedFromLower
attr title "packets received from lower layer, vector(packetBytes)"
vector 398 WirelessA.Tclient83.wlan[0].mac packetDropNotAddressedToUs:vector(packetBytes) ETV
attr interpolationmode none
attr source packetDropReasonIsNotAddressedToUs(packetDropped)
attr title "packet drop: not addressed to us, vector(packetBytes)"
vector 399 WirelessA.Tclient79.wlan[0].mac rcvdPkFromLl:vector(packetBytes) ETV
attr interpolationmode none
attr source packetReceivedFromLower
attr title "packets received from lower layer, vector(packetBytes)"
vector 400 WirelessA.Tclient79.wlan[0].mac packetDropNotAddressedToUs:vector(packetBytes) ETV
attr interpolationmode none
attr source packetDropReasonIsNotAddressedToUs(packetDropped)
attr title "packet drop: not addressed to us, vector(packetBytes)"
vector 401 WirelessA.Tclient92.wlan[0].mac rcvdPkFromLl:vector(packetBytes) ETV
attr interpolationmode none
attr source packetReceivedFromLower
attr title "packets received from lower layer, vector(packetBytes)"
vector 402 WirelessA.Tclient92.wlan[0].mac packetDropNotAddressedToUs:vector(packetBytes) ETV
attr interpolationmode none
attr source packetDropReasonIsNotAddressedToUs(packetDropped)
attr title "packet drop: not addressed to us, vector(packetBytes)"
vector 403 WirelessA.Tclient148.wlan[0].mac rcvdPkFromLl:vector(packetBytes) ETV
attr interpolationmode none
attr source packetReceivedFromLower
attr title "packets received from lower layer, vector(packetBytes)"
vector 404 WirelessA.Tclient148.wlan[0].mac packetDropNotAddressedToUs:vector(packetBytes) ETV
attr interpolationmode none
attr source packetDropReasonIsNotAddressedToUs(packetDropped)
attr title "packet drop: not addressed to us, vector(packetBytes)"
vector 405 WirelessA.Tclient37.wlan[0].mac rcvdPkFromLl:vector(packetBytes) ETV
attr interpolationmode none
attr source packetReceivedFromLower
attr title "packets received from lower layer, vector(packetBytes)"
vector 406 WirelessA.Tclient37.wlan[0].mac packetDropNotAddressedToUs:vector(packetBytes) ETV
attr interpolationmode none
attr source packetDropReasonIsNotAddressedToUs(packetDropped)
attr title "packet drop: not addressed to us, vector(packetBytes)"
vector 407 WirelessA.Tclient33.wlan[0].mac rcvdPkFromLl:vector(packetBytes) ETV
attr interpolationmode none
attr source packetReceivedFromLower
attr title "packets received from lower layer, vector(packetBytes)"
vector 408 WirelessA.Tclient33.wlan[0].mac packetDropNotAddressedToUs:vector(packetBytes) ETV
attr interpolationmode none
attr source packetDropReasonIsNotAddressedToUs(packetDropped)
attr title "packet drop: not addressed to us, vector(packetBytes)"
vector 409 WirelessA.Tclient80.wlan[0].mac rcvdPkFromLl:vector(packetBytes) ETV
attr interpolationmode none
attr source packetReceivedFromLower
attr title "packets received from lower layer, vector(packetBytes)"
vector 410 WirelessA.Tclient80.wlan[0].mac packetDropNotAddressedToUs:vector(packetBytes) ETV
attr interpolationmode none
attr source packetDropReasonIsNotAddressedToUs(packetDropped)
attr title "packet drop: not addressed to us, vector(packetBytes)"
vector 411 WirelessA.Tclient26.wlan[0].mac rcvdPkFromLl:vector(packetBytes) ETV
attr interpolationmode none
[...]
1298	70747	0.5	0
1298	70747	0.6	0
1298	70747	0.7	0
1298	70747	0.8	0
1298	70747	0.9	0
1298	70747	1	0
1298	70747	1.1	0
1298	70747	1.2	0
1298	70747	1.3	0
1298	70747	1.4	0
1298	70747	1.5	0
1298	70747	1.6	0
1298	70747	1.7	0
1298	79727	1.8	80000
1298	79727	1.9	0
1298	79727	2	0
1299	70747	1.767555123084	0.016204812812
1300	70747	1.767555123084	152
1301	71496	1.786708652625	1028
1302	71498	1.786708652625	1008
1303	71498	1.786708652625	1
1304	71499	1.786708652625	1000
1305	71499	0.1	0
1305	71499	0.2	0
1305	71499	0.3	0
1305	71499	0.4	0
1305	71499	0.5	0
1305	71499	0.6	0
1305	71499	0.7	0
1305	71499	0.8	0
1305	71499	0.9	0
1305	71499	1	0
1305	71499	1.1	0
1305	71499	1.2	0
1305	71499	1.3	0
1305	71499	1.4	0
1305	71499	1.5	0
1305	71499	1.6	0
1305	71499	1.7	0
1305	79727	1.8	80000
1305	79727	1.9	0
1305	79727	2	0
1306	71499	1.786708652625	0.012928229269
1307	71499	1.786708652625	154
1308	71920	1.796093938886	1028
1309	71922	1.796093938886	1008
1310	71922	1.796093938886	1
1311	71923	1.796093938886	1000
1312	71923	0.1	0
1312	71923	0.2	0
1312	71923	0.3	0
1312	71923	0.4	0
1312	71923	0.5	0
1312	71923	0.6	0
1312	71923	0.7	0
1312	71923	0.8	0
1312	71923	0.9	0
1312	71923	1	0
1312	71923	1.1	0
1312	71923	1.2	0
1312	71923	1.3	0
1312	71923	1.4	0
1312	71923	1.5	0
1312	71923	1.6	0
1312	71923	1.7	0
1312	79727	1.8	80000
1312	79727	1.9	0
1312	79727	2	0
1313	71923	1.796093938886	0.008505564415
1314	71923	1.796093938886	155
1315	72410	1.804599301803	1028
1316	72412	1.804599301803	1008
1317	72412	1.804599301803	1
1318	72413	1.804599301803	1000
1319	72413	0.1	0
1319	72413	0.2	0
1319	72413	0.3	0
1319	72413	0.4	0
1319	72413	0.5	0
1319	72413	0.6	0
1319	72413	0.7	0
1319	72413	0.8	0
1319	72413	0.9	0
1319	72413	1	0
1319	72413	1.1	0
1319	72413	1.2	0
1319	72413	1.3	0
1319	72413	1.4	0
1319	72413	1.5	0
1319	72413	1.6	0
1319	72413	1.7	0
1319	72413	1.8	0
1319	79727	1.9	80000
1319	79727	2	0
1320	72413	1.804599301803	0.011260374998
1321	72413	1.804599301803	156
1322	74075	1.8538010343	1028
1323	74077	1.8538010343	1008
1324	74077	1.8538010343	1
1325	74078	1.8538010343	1000
1326	74078	0.1	0
1326	74078	0.2	0
1326	74078	0.3	0
1326	74078	0.4	0
1326	74078	0.5	0
1326	74078	0.6	0
1326	74078	0.7	0
1326	74078	0.8	0
1326	74078	0.9	0
1326	74078	1	0
1326	74078	1.1	0
1326	74078	1.2	0
1326	74078	1.3	0
1326	74078	1.4	0
1326	74078	1.5	0
1326	74078	1.6	0
1326	74078	1.7	0
1326	74078	1.8	0
1326	79727	1.9	80000
1326	79727	2	0
1327	74078	1.8538010343	0.00875304994
1328	74078	1.8538010343	159
1329	74358	1.862303421595	1028
1330	74360	1.862303421595	1008
1331	74360	1.862303421595	1
1332	74361	1.862303421595	1000
1333	74361	0.1	0
1333	74361	0.2	0
1333	74361	0.3	0
1333	74361	0.4	0
1333	74361	0.5	0
1333	74361	0.6	0
1333	74361	0.7	0
1333	74361	0.8	0
1333	74361	0.9	0
1333	74361	1	0
1333	74361	1.1	0
1333	74361	1.2	0
1333	74361	1.3	0
1333	74361	1.4	0
1333	74361	1.5	0
1333	74361	1.6	0
1333	74361	1.7	0
1333	74361	1.8	0
1333	79727	1.9	80000
1333	79727	2	0
1334	74361	1.862303421595	0.010555515764
1335	74361	1.862303421595	160
1336	77560	1.95088278202	1028
1337	77562	1.95088278202	1008
1338	77562	1.95088278202	1
1339	77563	1.95088278202	1000
1340	77563	0.1	0
1340	77563	0.2	0
1340	77563	0.3	0
1340	77563	0.4	0
1340	77563	0.5	0
1340	77563	0.6	0
1340	77563	0.7	0
1340	77563	0.8	0
1340	77563	0.9	0
1340	77563	1	0
1340	77563	1.1	0
1340	77563	1.2	0
1340	77563	1.3	0
1340	77563	1.4	0
1340	77563	1.5	0
1340	77563	1.6	0
1340	77563	1.7	0
1340	77563	1.8	0
1340	77563	1.9	0
1340	79727	2	80000
1341	77563	1.95088278202	0.010031993274
1342	77563	1.95088278202	167
1343	79727	0.1	0
1343	79727	0.2	0
1343	79727	0.3	0
1343	79727	0.4	0
1343	79727	0.5	0
1343	79727	0.6	0
1343	79727	0.7	0
1343	79727	0.8	0
1343	79727	0.9	0
1343	79727	1	0
1343	79727	1.1	0
1343	79727	1.2	0
1343	79727	1.3	0
1343	79727	1.4	0
1343	79727	1.5	0
1343	79727	1.6	0
1343	79727	1.7	0
1343	79727	1.8	0
1343	79727	1.9	0
1343	79727	2	0
1344	79727	0.1	0
1344	79727	0.2	0
1344	79727	0.3	0
1344	79727	0.4	0
1344	79727	0.5	0
1344	79727	0.6	0
1344	79727	0.7	0
1344	79727	0.8	0
1344	79727	0.9	0
1344	79727	1	0
1344	79727	1.1	0
1344	79727	1.2	0
1344	79727	1.3	0
1344	79727	1.4	0
1344	79727	1.5	0
1344	79727	1.6	0
1344	79727	1.7	0
1344	79727	1.8	0
1344	79727	1.9	0
1344	79727	2	0
1345	79727	0.1	0
1345	79727	0.2	0
1345	79727	0.3	0
1345	79727	0.4	0
1345	79727	0.5	0
1345	79727	0.6	0
1345	79727	0.7	0
1345	79727	0.8	0
1345	79727	0.9	0
1345	79727	1	0
1345	79727	1.1	0
1345	79727	1.2	0
1345	79727	1.3	0
1345	79727	1.4	0
1345	79727	1.5	0
1345	79727	1.6	0
1345	79727	1.7	0
1345	79727	1.8	0
1345	79727	1.9	0
1345	79727	2	0
1346	79727	0.1	80000
1346	79727	0.2	0
1346	79727	0.3	0
1346	79727	0.4	0
1346	79727	0.5	0
1346	79727	0.6	0
1346	79727	0.7	0
1346	79727	0.8	0
1346	79727	0.9	0
1346	79727	1	0
1346	79727	1.1	0
1346	79727	1.2	0
1346	79727	1.3	0
1346	79727	1.4	0
1346	79727	1.5	0
1346	79727	1.6	0
1346	79727	1.7	0
1346	79727	1.8	0
1346	79727	1.9	0
1346	79727	2	0
1347	79727	0.1	0
1347	79727	0.2	0
1347	79727	0.3	0
1347	79727	0.4	0
1347	79727	0.5	0
1347	79727	0.6	0
1347	79727	0.7	0
1347	79727	0.8	0
1347	79727	0.9	0
1347	79727	1	0
1347	79727	1.1	0
1347	79727	1.2	0
1347	79727	1.3	0
1347	79727	1.4	0
1347	79727	1.5	0
1347	79727	1.6	0
1347	79727	1.7	0
1347	79727	1.8	0
1347	79727	1.9	0
1347	79727	2	0
1348	79727	0.1	0
1348	79727	0.2	0
1348	79727	0.3	0
1348	79727	0.4	0
1348	79727	0.5	0
1348	79727	0.6	0
1348	79727	0.7	0
1348	79727	0.8	0
1348	79727	0.9	0
1348	79727	1	0
1348	79727	1.1	0
1348	79727	1.2	0
1348	79727	1.3	0
1348	79727	1.4	0
1348	79727	1.5	0
1348	79727	1.6	0
1348	79727	1.7	0
1348	79727	1.8	0
1348	79727	1.9	0
1348	79727	2	0
1349	79727	0.1	0
1349	79727	0.2	0
1349	79727	0.3	0
1349	79727	0.4	0
1349	79727	0.5	0
1349	79727	0.6	0
1349	79727	0.7	0
1349	79727	0.8	0
1349	79727	0.9	0
1349	79727	1	0
1349	79727	1.1	0
1349	79727	1.2	0
1349	79727	1.3	0
1349	79727	1.4	0
1349	79727	1.5	0
1349	79727	1.6	0
1349	79727	1.7	0
1349	79727	1.8	0
1349	79727	1.9	0
1349	79727	2	0
1350	79727	0.1	80000
1350	79727	0.2	0
1350	79727	0.3	0
1350	79727	0.4	0
1350	79727	0.5	0
1350	79727	0.6	0
1350	79727	0.7	0
1350	79727	0.8	0
1350	79727	0.9	0
1350	79727	1	0
1350	79727	1.1	0
1350	79727	1.2	0
1350	79727	1.3	0
1350	79727	1.4	0
1350	79727	1.5	0
1350	79727	1.6	0
1350	79727	1.7	0
1350	79727	1.8	0
1350	79727	1.9	0
1350	79727	2	0
1351	79727	0.1	0
1351	79727	0.2	0
1351	79727	0.3	0
1351	79727	0.4	0
1351	79727	0.5	0
1351	79727	0.6	0
1351	79727	0.7	0
1351	79727	0.8	0
1351	79727	0.9	0
1351	79727	1	0
1351	79727	1.1	0
1351	79727	1.2	0
1351	79727	1.3	0
1351	79727	1.4	0
1351	79727	1.5	0
1351	79727	1.6	0
1351	79727	1.7	0
1351	79727	1.8	0
1351	79727	1.9	0
1351	79727	2	0
1352	79727	0.1	0
1352	79727	0.2	0
1352	79727	0.3	0
1352	79727	0.4	0
1352	79727	0.5	0
1352	79727	0.6	0
1352	79727	0.7	0
1352	79727	0.8	0
1352	79727	0.9	0
1352	79727	1	0
1352	79727	1.1	0
1352	79727	1.2	0
1352	79727	1.3	0
1352	79727	1.4	0
1352	79727	1.5	0
1352	79727	1.6	0
1352	79727	1.7	0
1352	79727	1.8	0
1352	79727	1.9	0
1352	79727	2	0
1353	79727	0.1	0
1353	79727	0.2	0
1353	79727	0.3	0
1353	79727	0.4	0
1353	79727	0.5	0
1353	79727	0.6	0
1353	79727	0.7	0
1353	79727	0.8	0
1353	79727	0.9	0
1353	79727	1	0
1353	79727	1.1	0
1353	79727	1.2	0
1353	79727	1.3	0
1353	79727	1.4	0
1353	79727	1.5	0
1353	79727	1.6	0
1353	79727	1.7	0
1353	79727	1.8	0
1353	79727	1.9	0
1353	79727	2	0
1354	79727	0.1	0
1354	79727	0.2	0
1354	79727	0.3	0
1354	79727	0.4	0
1354	79727	0.5	0
1354	79727	0.6	0
1354	79727	0.7	0
1354	79727	0.8	0
1354	79727	0.9	0
1354	79727	1	0
1354	79727	1.1	0
1354	79727	1.2	0
1354	79727	1.3	0
1354	79727	1.4	0
1354	79727	1.5	0
1354	79727	1.6	0
1354	79727	1.7	0
1354	79727	1.8	0
1354	79727	1.9	0
1354	79727	2	0
1355	79727	0.1	0
1355	79727	0.2	0
1355	79727	0.3	0
1355	79727	0.4	0
1355	79727	0.5	0
1355	79727	0.6	0
1355	79727	0.7	0
1355	79727	0.8	0
1355	79727	0.9	0
1355	79727	1	0
1355	79727	1.1	0
1355	79727	1.2	0
1355	79727	1.3	0
1355	79727	1.4	0
1355	79727	1.5	0
1355	79727	1.6	0
1355	79727	1.7	0
1355	79727	1.8	0
1355	79727	1.9	0
1355	79727	2	0
1356	79727	0.1	0
1356	79727	0.2	0
1356	79727	0.3	0
1356	79727	0.4	0
1356	79727	0.5	0
1356	79727	0.6	0
1356	79727	0.7	0
1356	79727	0.8	0
1356	79727	0.9	0
1356	79727	1	0
1356	79727	1.1	0
1356	79727	1.2	0
1356	79727	1.3	0
1356	79727	1.4	0
1356	79727	1.5	0
1356	79727	1.6	0
1356	79727	1.7	0
1356	79727	1.8	0
1356	79727	1.9	0
1356	79727	2	0
1357	79727	0.1	0
1357	79727	0.2	0
1357	79727	0.3	0
1357	79727	0.4	0
1357	79727	0.5	0
1357	79727	0.6	0
1357	79727	0.7	0
1357	79727	0.8	0
1357	79727	0.9	0
1357	79727	1	0
1357	79727	1.1	0
1357	79727	1.2	0
1357	79727	1.3	0
1357	79727	1.4	0
1357	79727	1.5	0
1357	79727	1.6	0
1357	79727	1.7	0
1357	79727	1.8	0
1357	79727	1.9	0
1357	79727	2	0
1358	79727	0.1	0
1358	79727	0.2	0
1358	79727	0.3	0
1358	79727	0.4	0
1358	79727	0.5	0
1358	79727	0.6	0
1358	79727	0.7	0
1358	79727	0.8	0
1358	79727	0.9	0
1358	79727	1	0
1358	79727	1.1	0
1358	79727	1.2	0
1358	79727	1.3	0
1358	79727	1.4	0
1358	79727	1.5	0
1358	79727	1.6	0
1358	79727	1.7	0
1358	79727	1.8	0
1358	79727	1.9	0
1358	79727	2	0
1359	79727	0.1	0
1359	79727	0.2	0
1359	79727	0.3	0
1359	79727	0.4	0
1359	79727	0.5	0
1359	79727	0.6	0
1359	79727	0.7	0
1359	79727	0.8	0
1359	79727	0.9	0
1359	79727	1	0
1359	79727	1.1	0
1359	79727	1.2	0
1359	79727	1.3	0
1359	79727	1.4	0
1359	79727	1.5	0
1359	79727	1.6	0
1359	79727	1.7	0
1359	79727	1.8	0
1359	79727	1.9	0
1359	79727	2	0
1360	79727	0.1	0
1360	79727	0.2	0
1360	79727	0.3	0
1360	79727	0.4	0
1360	79727	0.5	0
1360	79727	0.6	0
1360	79727	0.7	0
1360	79727	0.8	0
1360	79727	0.9	0
1360	79727	1	0
1360	79727	1.1	0
1360	79727	1.2	0
1360	79727	1.3	0
1360	79727	1.4	0
1360	79727	1.5	0
1360	79727	1.6	0
1360	79727	1.7	0
1360	79727	1.8	0
1360	79727	1.9	0
1360	79727	2	0
1361	79727	0.1	0
1361	79727	0.2	0
1361	79727	0.3	0
1361	79727	0.4	0
1361	79727	0.5	0
1361	79727	0.6	0
1361	79727	0.7	0
1361	79727	0.8	0
1361	79727	0.9	0
1361	79727	1	0
1361	79727	1.1	0
1361	79727	1.2	0
1361	79727	1.3	0
1361	79727	1.4	0
1361	79727	1.5	0
1361	79727	1.6	0
1361	79727	1.7	0
1361	79727	1.8	0
1361	79727	1.9	0
1361	79727	2	0
1362	79727	0.1	0
1362	79727	0.2	0
1362	79727	0.3	0
1362	79727	0.4	0
1362	79727	0.5	0
1362	79727	0.6	0
1362	79727	0.7	0
1362	79727	0.8	0
1362	79727	0.9	0
1362	79727	1	0
1362	79727	1.1	0
1362	79727	1.2	0
1362	79727	1.3	0
1362	79727	1.4	0
1362	79727	1.5	0
1362	79727	1.6	0
1362	79727	1.7	0
1362	79727	1.8	0
1362	79727	1.9	0
1362	79727	2	0
1363	79727	0.1	0
1363	79727	0.2	0
1363	79727	0.3	0
1363	79727	0.4	0
1363	79727	0.5	0
1363	79727	0.6	0
1363	79727	0.7	0
1363	79727	0.8	0
1363	79727	0.9	0
1363	79727	1	0
1363	79727	1.1	0
1363	79727	1.2	0
1363	79727	1.3	0
1363	79727	1.4	0
1363	79727	1.5	0
1363	79727	1.6	0
1363	79727	1.7	0
1363	79727	1.8	0
1363	79727	1.9	0
1363	79727	2	0
1364	79727	0.1	0
1364	79727	0.2	0
1364	79727	0.3	0
1364	79727	0.4	0
1364	79727	0.5	0
1364	79727	0.6	0
1364	79727	0.7	0
1364	79727	0.8	0
1364	79727	0.9	0
1364	79727	1	0
1364	79727	1.1	0
1364	79727	1.2	0
1364	79727	1.3	0
1364	79727	1.4	0
1364	79727	1.5	0
1364	79727	1.6	0
1364	79727	1.7	0
1364	79727	1.8	0
1364	79727	1.9	0
1364	79727	2	0
1365	79727	0.1	0
1365	79727	0.2	0
1365	79727	0.3	0
1365	79727	0.4	0
1365	79727	0.5	0
1365	79727	0.6	0
1365	79727	0.7	0
1365	79727	0.8	0
1365	79727	0.9	0
1365	79727	1	0
1365	79727	1.1	0
1365	79727	1.2	0
1365	79727	1.3	0
1365	79727	1.4	0
1365	79727	1.5	0
1365	79727	1.6	0
1365	79727	1.7	0
1365	79727	1.8	0
1365	79727	1.9	0
1365	79727	2	0
1366	79727	0.1	0
1366	79727	0.2	0
1366	79727	0.3	0
1366	79727	0.4	0
1366	79727	0.5	0
1366	79727	0.6	0
1366	79727	0.7	0
1366	79727	0.8	0
1366	79727	0.9	0
1366	79727	1	0
1366	79727	1.1	0
1366	79727	1.2	0
1366	79727	1.3	0
1366	79727	1.4	0
1366	79727	1.5	0
1366	79727	1.6	0
1366	79727	1.7	0
1366	79727	1.8	0
1366	79727	1.9	0
1366	79727	2	0
1367	79727	0.1	0
1367	79727	0.2	0
1367	79727	0.3	0
1367	79727	0.4	0
1367	79727	0.5	0
1367	79727	0.6	0
1367	79727	0.7	0
1367	79727	0.8	0
1367	79727	0.9	0
1367	79727	1	0
1367	79727	1.1	0
1367	79727	1.2	0
1367	79727	1.3	0
1367	79727	1.4	0
1367	79727	1.5	0
1367	79727	1.6	0
1367	79727	1.7	0
1367	79727	1.8	0
1367	79727	1.9	0
1367	79727	2	0
1368	79727	0.1	0
1368	79727	0.2	0
1368	79727	0.3	0
1368	79727	0.4	0
1368	79727	0.5	0
1368	79727	0.6	0
1368	79727	0.7	0
1368	79727	0.8	0
1368	79727	0.9	0
1368	79727	1	0
1368	79727	1.1	0
1368	79727	1.2	0
1368	79727	1.3	0
1368	79727	1.4	0
1368	79727	1.5	0
1368	79727	1.6	0
1368	79727	1.7	0
1368	79727	1.8	0
1368	79727	1.9	0
1368	79727	2	0
1369	79727	0.1	0
1369	79727	0.2	0
1369	79727	0.3	0
1369	79727	0.4	0
1369	79727	0.5	0
1369	79727	0.6	0
1369	79727	0.7	0
1369	79727	0.8	0
1369	79727	0.9	0
1369	79727	1	0
1369	79727	1.1	0
1369	79727	1.2	0
1369	79727	1.3	0
1369	79727	1.4	0
1369	79727	1.5	0
1369	79727	1.6	0
1369	79727	1.7	0
1369	79727	1.8	0
1369	79727	1.9	0
1369	79727	2	0
1370	79727	0.1	0
1370	79727	0.2	0
1370	79727	0.3	0
1370	79727	0.4	0
1370	79727	0.5	0
1370	79727	0.6	0
1370	79727	0.7	0
1370	79727	0.8	0
1370	79727	0.9	0
1370	79727	1	0
1370	79727	1.1	0
1370	79727	1.2	0
1370	79727	1.3	0
1370	79727	1.4	0
1370	79727	1.5	0
1370	79727	1.6	0
1370	79727	1.7	0
1370	79727	1.8	0
1370	79727	1.9	0
1370	79727	2	0
1371	79727	0.1	0
1371	79727	0.2	0
1371	79727	0.3	0
1371	79727	0.4	0
1371	79727	0.5	0
1371	79727	0.6	0
1371	79727	0.7	0
1371	79727	0.8	0
1371	79727	0.9	0
1371	79727	1	0
1371	79727	1.1	0
1371	79727	1.2	0
1371	79727	1.3	0
1371	79727	1.4	0
1371	79727	1.5	0
1371	79727	1.6	0
1371	79727	1.7	0
1371	79727	1.8	0
1371	79727	1.9	0
1371	79727	2	0
1372	79727	0.1	0
1372	79727	0.2	0
1372	79727	0.3	0
1372	79727	0.4	0
1372	79727	0.5	0
1372	79727	0.6	0
1372	79727	0.7	0
1372	79727	0.8	0
1372	79727	0.9	0
1372	79727	1	0
1372	79727	1.1	0
1372	79727	1.2	0
1372	79727	1.3	0
1372	79727	1.4	0
1372	79727	1.5	0
1372	79727	1.6	0
1372	79727	1.7	0
1372	79727	1.8	0
1372	79727	1.9	0
1372	79727	2	0
1373	79727	0.1	0
1373	79727	0.2	0
1373	79727	0.3	0
1373	79727	0.4	0
1373	79727	0.5	0
1373	79727	0.6	0
1373	79727	0.7	0
1373	79727	0.8	0
1373	79727	0.9	0
1373	79727	1	0
1373	79727	1.1	0
1373	79727	1.2	0
1373	79727	1.3	0
1373	79727	1.4	0
1373	79727	1.5	0
1373	79727	1.6	0
1373	79727	1.7	0
1373	79727	1.8	0
1373	79727	1.9	0
1373	79727	2	0
1374	79727	0.1	0
1374	79727	0.2	0
1374	79727	0.3	0
1374	79727	0.4	0
1374	79727	0.5	0
1374	79727	0.6	0
1374	79727	0.7	0
1374	79727	0.8	0
1374	79727	0.9	0
1374	79727	1	0
1374	79727	1.1	0
1374	79727	1.2	0
1374	79727	1.3	0
1374	79727	1.4	0
1374	79727	1.5	0
1374	79727	1.6	0
1374	79727	1.7	0
1374	79727	1.8	0
1374	79727	1.9	0
1374	79727	2	0
1375	79727	0.1	0
1375	79727	0.2	0
1375	79727	0.3	0
1375	79727	0.4	0
1375	79727	0.5	0
1375	79727	0.6	0
1375	79727	0.7	0
1375	79727	0.8	0
1375	79727	0.9	0
1375	79727	1	0
1375	79727	1.1	0
1375	79727	1.2	0
1375	79727	1.3	0
1375	79727	1.4	0
1375	79727	1.5	0
1375	79727	1.6	0
1375	79727	1.7	0
1375	79727	1.8	0
1375	79727	1.9	0
1375	79727	2	0
1376	79727	0.1	0
1376	79727	0.2	0
1376	79727	0.3	0
1376	79727	0.4	0
1376	79727	0.5	0
1376	79727	0.6	0
1376	79727	0.7	0
1376	79727	0.8	0
1376	79727	0.9	0
1376	79727	1	0
1376	79727	1.1	0
1376	79727	1.2	0
1376	79727	1.3	0
1376	79727	1.4	0
1376	79727	1.5	0
1376	79727	1.6	0
1376	79727	1.7	0
1376	79727	1.8	0
1376	79727	1.9	0
1376	79727	2	0
1377	79727	0.1	0
1377	79727	0.2	0
1377	79727	0.3	0
1377	79727	0.4	0
1377	79727	0.5	0
1377	79727	0.6	0
1377	79727	0.7	0
1377	79727	0.8	0
1377	79727	0.9	0
1377	79727	1	0
1377	79727	1.1	0
1377	79727	1.2	0
1377	79727	1.3	0
1377	79727	1.4	0
1377	79727	1.5	0
1377	79727	1.6	0
1377	79727	1.7	0
1377	79727	1.8	0
1377	79727	1.9	0
1377	79727	2	0
1378	79727	0.1	0
1378	79727	0.2	0
1378	79727	0.3	0
1378	79727	0.4	0
1378	79727	0.5	0
1378	79727	0.6	0
1378	79727	0.7	0
1378	79727	0.8	0
1378	79727	0.9	0
1378	79727	1	0
1378	79727	1.1	0
1378	79727	1.2	0
1378	79727	1.3	0
1378	79727	1.4	0
1378	79727	1.5	0
1378	79727	1.6	0
1378	79727	1.7	0
1378	79727	1.8	0
1378	79727	1.9	0
1378	79727	2	0
1379	79727	0.1	0
1379	79727	0.2	0
1379	79727	0.3	0
1379	79727	0.4	0
1379	79727	0.5	0
1379	79727	0.6	0
1379	79727	0.7	0
1379	79727	0.8	0
1379	79727	0.9	0
1379	79727	1	0
1379	79727	1.1	0
1379	79727	1.2	0
1379	79727	1.3	0
1379	79727	1.4	0
1379	79727	1.5	0
1379	79727	1.6	0
1379	79727	1.7	0
1379	79727	1.8	0
1379	79727	1.9	0
1379	79727	2	0
1380	79727	0.1	0
1380	79727	0.2	0
1380	79727	0.3	0
1380	79727	0.4	0
1380	79727	0.5	0
1380	79727	0.6	0
1380	79727	0.7	0
1380	79727	0.8	0
1380	79727	0.9	0
1380	79727	1	0
1380	79727	1.1	0
1380	79727	1.2	0
1380	79727	1.3	0
1380	79727	1.4	0
1380	79727	1.5	0
1380	79727	1.6	0
1380	79727	1.7	0
1380	79727	1.8	0
1380	79727	1.9	0
1380	79727	2	0
1381	79727	0.1	0
1381	79727	0.2	0
1381	79727	0.3	0
1381	79727	0.4	0
1381	79727	0.5	0
1381	79727	0.6	0
1381	79727	0.7	0
1381	79727	0.8	0
1381	79727	0.9	0
1381	79727	1	0
1381	79727	1.1	0
1381	79727	1.2	0
1381	79727	1.3	0
1381	79727	1.4	0
1381	79727	1.5	0
1381	79727	1.6	0
1381	79727	1.7	0
1381	79727	1.8	0
1381	79727	1.9	0
1381	79727	2	0
1382	79727	0.1	0
1382	79727	0.2	0
1382	79727	0.3	0
1382	79727	0.4	0
1382	79727	0.5	0
1382	79727	0.6	0
1382	79727	0.7	0
1382	79727	0.8	0
1382	79727	0.9	0
1382	79727	1	0
1382	79727	1.1	0
1382	79727	1.2	0
1382	79727	1.3	0
1382	79727	1.4	0
1382	79727	1.5	0
1382	79727	1.6	0
1382	79727	1.7	0
1382	79727	1.8	0
1382	79727	1.9	0
1382	79727	2	0
1383	79727	0.1	0
1383	79727	0.2	0
1383	79727	0.3	0
1383	79727	0.4	0
1383	79727	0.5	0
1383	79727	0.6	0
1383	79727	0.7	0
1383	79727	0.8	0
1383	79727	0.9	0
1383	79727	1	0
1383	79727	1.1	0
1383	79727	1.2	0
1383	79727	1.3	0
1383	79727	1.4	0
1383	79727	1.5	0
1383	79727	1.6	0
1383	79727	1.7	0
1383	79727	1.8	0
1383	79727	1.9	0
1383	79727	2	0
1384	79727	0.1	80000
1384	79727	0.2	0
1384	79727	0.3	0
1384	79727	0.4	0
1384	79727	0.5	0
1384	79727	0.6	0
1384	79727	0.7	0
1384	79727	0.8	0
1384	79727	0.9	0
1384	79727	1	0
1384	79727	1.1	0
1384	79727	1.2	0
1384	79727	1.3	0
1384	79727	1.4	0
1384	79727	1.5	0
1384	79727	1.6	0
1384	79727	1.7	0
1384	79727	1.8	0
1384	79727	1.9	0
1384	79727	2	0
1385	79727	0.1	0
1385	79727	0.2	0
1385	79727	0.3	0
1385	79727	0.4	0
1385	79727	0.5	0
1385	79727	0.6	0
1385	79727	0.7	0
1385	79727	0.8	0
1385	79727	0.9	0
1385	79727	1	0
1385	79727	1.1	0
1385	79727	1.2	0
1385	79727	1.3	0
1385	79727	1.4	0
1385	79727	1.5	0
1385	79727	1.6	0
1385	79727	1.7	0
1385	79727	1.8	0
1385	79727	1.9	0
1385	79727	2	0
1386	79727	0.1	0
1386	79727	0.2	0
1386	79727	0.3	0
1386	79727	0.4	0
1386	79727	0.5	0
1386	79727	0.6	0
1386	79727	0.7	0
1386	79727	0.8	0
1386	79727	0.9	0
1386	79727	1	0
1386	79727	1.1	0
1386	79727	1.2	0
1386	79727	1.3	0
1386	79727	1.4	0
1386	79727	1.5	0
1386	79727	1.6	0
1386	79727	1.7	0
1386	79727	1.8	0
1386	79727	1.9	0
1386	79727	2	0
1387	79727	0.1	0
1387	79727	0.2	0
1387	79727	0.3	0
1387	79727	0.4	0
1387	79727	0.5	0
1387	79727	0.6	0
1387	79727	0.7	0
1387	79727	0.8	0
1387	79727	0.9	0
1387	79727	1	0
1387	79727	1.1	0
1387	79727	1.2	0
1387	79727	1.3	0
1387	79727	1.4	0
1387	79727	1.5	0
1387	79727	1.6	0
1387	79727	1.7	0
1387	79727	1.8	0
1387	79727	1.9	0
1387	79727	2	0
1388	79727	0.1	0
1388	79727	0.2	0
1388	79727	0.3	0
1388	79727	0.4	0
1388	79727	0.5	0
1388	79727	0.6	0
1388	79727	0.7	0
1388	79727	0.8	0
1388	79727	0.9	0
1388	79727	1	0
1388	79727	1.1	0
1388	79727	1.2	0
1388	79727	1.3	0
1388	79727	1.4	0
1388	79727	1.5	0
1388	79727	1.6	0
1388	79727	1.7	0
1388	79727	1.8	0
1388	79727	1.9	0
1388	79727	2	0
1389	79727	0.1	0
1389	79727	0.2	0
1389	79727	0.3	0
1389	79727	0.4	0
1389	79727	0.5	0
1389	79727	0.6	0
1389	79727	0.7	0
1389	79727	0.8	0
1389	79727	0.9	0
1389	79727	1	0
1389	79727	1.1	0
1389	79727	1.2	0
1389	79727	1.3	0
1389	79727	1.4	0
1389	79727	1.5	0
1389	79727	1.6	0
1389	79727	1.7	0
1389	79727	1.8	0
1389	79727	1.9	0
1389	79727	2	0
1390	79727	0.1	0
1390	79727	0.2	0
1390	79727	0.3	0
1390	79727	0.4	0
1390	79727	0.5	0
1390	79727	0.6	0
1390	79727	0.7	0
1390	79727	0.8	0
1390	79727	0.9	0
1390	79727	1	0
1390	79727	1.1	0
1390	79727	1.2	0
1390	79727	1.3	0
1390	79727	1.4	0
1390	79727	1.5	0
1390	79727	1.6	0
1390	79727	1.7	0
1390	79727	1.8	0
1390	79727	1.9	0
1390	79727	2	0
1391	79727	0.1	0
1391	79727	0.2	0
1391	79727	0.3	0
1391	79727	0.4	0
1391	79727	0.5	0
1391	79727	0.6	0
1391	79727	0.7	0
1391	79727	0.8	0
1391	79727	0.9	0
1391	79727	1	0
1391	79727	1.1	0
1391	79727	1.2	0
1391	79727	1.3	0
1391	79727	1.4	0
1391	79727	1.5	0
1391	79727	1.6	0
1391	79727	1.7	0
1391	79727	1.8	0
1391	79727	1.9	0
1391	79727	2	0

