file 3350116 1592570986                                         
version 2
run Wireless01-0-20200619-14:36:11-22664
attr configname Wireless01
attr datetime 20200619-14:36:11
attr experiment Wireless01
attr inifile omnetpp.ini
attr iterationvars ""
attr iterationvarsf ""
attr measurement ""
attr network WirelessA
attr processid 22664
attr repetition 0
attr replication #0
attr resultdir results
attr runnumber 0
attr seedset 0
param *.T*.ipv4.arp.typename "\"GlobalArp\""
param *.Tserveur.numApps 1
param *.Tserveur.app[0].typename "\"UdpBasicApp\""
param *.Tserveur.app[0].destAddresses "\"Tclient Tclient1 Tclient2 Tclient3 Tclient4 Tclient5 Tclient6 Tclient7 Tclient8 Tclient9 Tclient10 Tclient11 Tclient12 Tclient13 Tclient14 Tclient15 Tclient16 Tclient17 Tclient18 Tclient19 Tclient20 Tclient21 Tclient22 Tclient23 Tclient24 Tclient25 Tclient26 Tclient27 Tclient28 Tclient29 Tclient30 Tclient31 Tclient32 Tclient33 Tclient34 Tclient35 Tclient36 Tclient37 Tclient38 Tclient39 Tclient40 Tclient41 Tclient42 Tclient43 Tclient44 Tclient45 Tclient46 Tclient47 Tclient48 Tclient49 Tclient50 Tclient51 Tclient52 Tclient53 Tclient54 Tclient55 Tclient56 Tclient57 Tclient58 Tclient59 Tclient60 Tclient61 Tclient62 Tclient63 Tclient64 Tclient65 Tclient66 Tclient67 Tclient68 Tclient69 Tclient70 Tclient71 Tclient72 Tclient73 Tclient74 Tclient75 Tclient76 Tclient77 Tclient78 Tclient79 Tclient80 Tclient81 Tclient82 Tclient83 Tclient84 Tclient85 Tclient86 Tclient87 Tclient88 Tclient89 Tclient90 Tclient91 Tclient92 Tclient93 Tclient94 Tclient95 Tclient96 Tclient97 Tclient98 Tclient99 Tclient100 Tclient101 Tclient102 Tclient103 Tclient104 Tclient105 Tclient106 Tclient107 Tclient108 Tclient109 Tclient110 Tclient111 Tclient112 Tclient113 Tclient114 Tclient115 Tclient116 Tclient117 Tclient118 Tclient119 Tclient120 Tclient121 Tclient122 Tclient123 Tclient124 Tclient125 Tclient126 Tclient127 Tclient128 Tclient129 Tclient130 Tclient131 Tclient132 Tclient133 Tclient134 Tclient135 Tclient136 Tclient137 Tclient138 Tclient139 Tclient140 Tclient141 Tclient142 Tclient143 Tclient144 Tclient145 Tclient146 Tclient147 Tclient148 Tclient149\""
param *.Tserveur.app[0].destPort 5000
param *.Tserveur.app[0].messageLength 1000B
param *.Tserveur.app[0].sendInterval exponential(12ms)
param *.Tserveur.app[0].packetName "\"UDPData\""
param *.Tserveur.wlan[0].radio.displayCommunicationRange true
param *.Tclient*.numApps 1
param *.Tclient*.app[0].typename "\"UdpSink\""
param *.Tclient*.app[0].localPort 5000
param *.T*.wlan[0].typename "\"AckingWirelessInterface\""
param *.T*.wlan[0].mac.useAck false
param *.T*.wlan[0].mac.fullDuplex false
param *.T*.wlan[0].radio.transmitter.communicationRange 3000m
param *.T*.wlan[0].radio.receiver.ignoreInterference true
param *.T*.wlan[0].mac.headerLength 23B
param *.visualizer.mediumVisualizer.displaySignals true
param *.visualizer.sceneVisualizer.descriptionFigure "\"title\""
param *.visualizer.physicalLinkVisualizer.displayLinks true
param *.visualizer.physicalLinkVisualizer.packetFilter "\"UDPData\""
param *.T*.**.bitrate 1Mbps

vector 0 WirelessA.Tserveur.wlan[0].radio radioMode:vector ETV
attr interpolationmode sample-hold
attr source radioModeChanged
attr title "Radio mode, vector"
vector 1 WirelessA.Tclient.wlan[0].radio radioMode:vector ETV
attr interpolationmode sample-hold
attr source radioModeChanged
attr title "Radio mode, vector"
vector 2 WirelessA.Tclient1.wlan[0].radio radioMode:vector ETV
attr interpolationmode sample-hold
attr source radioModeChanged
attr title "Radio mode, vector"
vector 3 WirelessA.Tclient2.wlan[0].radio radioMode:vector ETV
attr interpolationmode sample-hold
attr source radioModeChanged
attr title "Radio mode, vector"
vector 4 WirelessA.Tclient3.wlan[0].radio radioMode:vector ETV
attr interpolationmode sample-hold
attr source radioModeChanged
attr title "Radio mode, vector"
vector 5 WirelessA.Tclient4.wlan[0].radio radioMode:vector ETV
attr interpolationmode sample-hold
attr source radioModeChanged
attr title "Radio mode, vector"
vector 6 WirelessA.Tclient5.wlan[0].radio radioMode:vector ETV
attr interpolationmode sample-hold
attr source radioModeChanged
attr title "Radio mode, vector"
vector 7 WirelessA.Tclient6.wlan[0].radio radioMode:vector ETV
attr interpolationmode sample-hold
attr source radioModeChanged
attr title "Radio mode, vector"
vector 8 WirelessA.Tclient7.wlan[0].radio radioMode:vector ETV
attr interpolationmode sample-hold
attr source radioModeChanged
attr title "Radio mode, vector"
vector 9 WirelessA.Tclient8.wlan[0].radio radioMode:vector ETV
attr interpolationmode sample-hold
attr source radioModeChanged
attr title "Radio mode, vector"
vector 10 WirelessA.Tclient9.wlan[0].radio radioMode:vector ETV
attr interpolationmode sample-hold
attr source radioModeChanged
attr title "Radio mode, vector"
vector 11 WirelessA.Tclient10.wlan[0].radio radioMode:vector ETV
attr interpolationmode sample-hold
attr source radioModeChanged
attr title "Radio mode, vector"
vector 12 WirelessA.Tclient11.wlan[0].radio radioMode:vector ETV
attr interpolationmode sample-hold
attr source radioModeChanged
attr title "Radio mode, vector"
vector 13 WirelessA.Tclient12.wlan[0].radio radioMode:vector ETV
attr interpolationmode sample-hold
attr source radioModeChanged
attr title "Radio mode, vector"
vector 14 WirelessA.Tclient13.wlan[0].radio radioMode:vector ETV
attr interpolationmode sample-hold
attr source radioModeChanged
attr title "Radio mode, vector"
vector 15 WirelessA.Tclient14.wlan[0].radio radioMode:vector ETV
attr interpolationmode sample-hold
attr source radioModeChanged
attr title "Radio mode, vector"
vector 16 WirelessA.Tclient15.wlan[0].radio radioMode:vector ETV
attr interpolationmode sample-hold
attr source radioModeChanged
attr title "Radio mode, vector"
vector 17 WirelessA.Tclient16.wlan[0].radio radioMode:vector ETV
attr interpolationmode sample-hold
attr source radioModeChanged
attr title "Radio mode, vector"
vector 18 WirelessA.Tclient17.wlan[0].radio radioMode:vector ETV
attr interpolationmode sample-hold
attr source radioModeChanged
attr title "Radio mode, vector"
vector 19 WirelessA.Tclient18.wlan[0].radio radioMode:vector ETV
attr interpolationmode sample-hold
attr source radioModeChanged
attr title "Radio mode, vector"
vector 20 WirelessA.Tclient19.wlan[0].radio radioMode:vector ETV
attr interpolationmode sample-hold
attr source radioModeChanged
attr title "Radio mode, vector"
vector 21 WirelessA.Tclient20.wlan[0].radio radioMode:vector ETV
attr interpolationmode sample-hold
attr source radioModeChanged
attr title "Radio mode, vector"
vector 22 WirelessA.Tclient21.wlan[0].radio radioMode:vector ETV
attr interpolationmode sample-hold
attr source radioModeChanged
attr title "Radio mode, vector"
vector 23 WirelessA.Tclient22.wlan[0].radio radioMode:vector ETV
attr interpolationmode sample-hold
attr source radioModeChanged
attr title "Radio mode, vector"
vector 24 WirelessA.Tclient23.wlan[0].radio radioMode:vector ETV
attr interpolationmode sample-hold
attr source radioModeChanged
attr title "Radio mode, vector"
vector 25 WirelessA.Tclient24.wlan[0].radio radioMode:vector ETV
attr interpolationmode sample-hold
attr source radioModeChanged
attr title "Radio mode, vector"
vector 26 WirelessA.Tclient25.wlan[0].radio radioMode:vector ETV
attr interpolationmode sample-hold
attr source radioModeChanged
attr title "Radio mode, vector"
vector 27 WirelessA.Tclient26.wlan[0].radio radioMode:vector ETV
attr interpolationmode sample-hold
attr source radioModeChanged
attr title "Radio mode, vector"
vector 28 WirelessA.Tclient27.wlan[0].radio radioMode:vector ETV
attr interpolationmode sample-hold
attr source radioModeChanged
attr title "Radio mode, vector"
vector 29 WirelessA.Tclient28.wlan[0].radio radioMode:vector ETV
attr interpolationmode sample-hold
attr source radioModeChanged
attr title "Radio mode, vector"
vector 30 WirelessA.Tclient29.wlan[0].radio radioMode:vector ETV
attr interpolationmode sample-hold
attr source radioModeChanged
attr title "Radio mode, vector"
vector 31 WirelessA.Tclient30.wlan[0].radio radioMode:vector ETV
attr interpolationmode sample-hold
attr source radioModeChanged
attr title "Radio mode, vector"
vector 32 WirelessA.Tclient31.wlan[0].radio radioMode:vector ETV
attr interpolationmode sample-hold
attr source radioModeChanged
attr title "Radio mode, vector"
vector 33 WirelessA.Tclient32.wlan[0].radio radioMode:vector ETV
attr interpolationmode sample-hold
attr source radioModeChanged
attr title "Radio mode, vector"
vector 34 WirelessA.Tclient33.wlan[0].radio radioMode:vector ETV
attr interpolationmode sample-hold
attr source radioModeChanged
attr title "Radio mode, vector"
vector 35 WirelessA.Tclient34.wlan[0].radio radioMode:vector ETV
attr interpolationmode sample-hold
attr source radioModeChanged
attr title "Radio mode, vector"
vector 36 WirelessA.Tclient35.wlan[0].radio radioMode:vector ETV
attr interpolationmode sample-hold
attr source radioModeChanged
attr title "Radio mode, vector"
vector 37 WirelessA.Tclient36.wlan[0].radio radioMode:vector ETV
attr interpolationmode sample-hold
attr source radioModeChanged
attr title "Radio mode, vector"
vector 38 WirelessA.Tclient37.wlan[0].radio radioMode:vector ETV
attr interpolationmode sample-hold
attr source radioModeChanged
attr title "Radio mode, vector"
vector 39 WirelessA.Tclient38.wlan[0].radio radioMode:vector ETV
attr interpolationmode sample-hold
attr source radioModeChanged
attr title "Radio mode, vector"
vector 40 WirelessA.Tclient39.wlan[0].radio radioMode:vector ETV
attr interpolationmode sample-hold
attr source radioModeChanged
attr title "Radio mode, vector"
vector 41 WirelessA.Tclient40.wlan[0].radio radioMode:vector ETV
attr interpolationmode sample-hold
attr source radioModeChanged
attr title "Radio mode, vector"
vector 42 WirelessA.Tclient41.wlan[0].radio radioMode:vector ETV
attr interpolationmode sample-hold
attr source radioModeChanged
attr title "Radio mode, vector"
vector 43 WirelessA.Tclient42.wlan[0].radio radioMode:vector ETV
attr interpolationmode sample-hold
attr source radioModeChanged
attr title "Radio mode, vector"
vector 44 WirelessA.Tclient43.wlan[0].radio radioMode:vector ETV
attr interpolationmode sample-hold
attr source radioModeChanged
attr title "Radio mode, vector"
vector 45 WirelessA.Tclient44.wlan[0].radio radioMode:vector ETV
attr interpolationmode sample-hold
attr source radioModeChanged
attr title "Radio mode, vector"
vector 46 WirelessA.Tclient45.wlan[0].radio radioMode:vector ETV
attr interpolationmode sample-hold
attr source radioModeChanged
attr title "Radio mode, vector"
vector 47 WirelessA.Tclient46.wlan[0].radio radioMode:vector ETV
attr interpolationmode sample-hold
attr source radioModeChanged
attr title "Radio mode, vector"
vector 48 WirelessA.Tclient47.wlan[0].radio radioMode:vector ETV
attr interpolationmode sample-hold
attr source radioModeChanged
attr title "Radio mode, vector"
vector 49 WirelessA.Tclient48.wlan[0].radio radioMode:vector ETV
attr interpolationmode sample-hold
attr source radioModeChanged
attr title "Radio mode, vector"
vector 50 WirelessA.Tclient49.wlan[0].radio radioMode:vector ETV
attr interpolationmode sample-hold
attr source radioModeChanged
attr title "Radio mode, vector"
vector 51 WirelessA.Tclient50.wlan[0].radio radioMode:vector ETV
attr interpolationmode sample-hold
attr source radioModeChanged
attr title "Radio mode, vector"
vector 52 WirelessA.Tclient51.wlan[0].radio radioMode:vector ETV
attr interpolationmode sample-hold
attr source radioModeChanged
attr title "Radio mode, vector"
vector 53 WirelessA.Tclient52.wlan[0].radio radioMode:vector ETV
attr interpolationmode sample-hold
attr source radioModeChanged
attr title "Radio mode, vector"
vector 54 WirelessA.Tclient53.wlan[0].radio radioMode:vector ETV
attr interpolationmode sample-hold
attr source radioModeChanged
attr title "Radio mode, vector"
vector 55 WirelessA.Tclient54.wlan[0].radio radioMode:vector ETV
attr interpolationmode sample-hold
attr source radioModeChanged
attr title "Radio mode, vector"
vector 56 WirelessA.Tclient55.wlan[0].radio radioMode:vector ETV
attr interpolationmode sample-hold
attr source radioModeChanged
attr title "Radio mode, vector"
vector 57 WirelessA.Tclient56.wlan[0].radio radioMode:vector ETV
attr interpolationmode sample-hold
attr source radioModeChanged
attr title "Radio mode, vector"
vector 58 WirelessA.Tclient57.wlan[0].radio radioMode:vector ETV
attr interpolationmode sample-hold
attr source radioModeChanged
attr title "Radio mode, vector"
vector 59 WirelessA.Tclient58.wlan[0].radio radioMode:vector ETV
attr interpolationmode sample-hold
attr source radioModeChanged
attr title "Radio mode, vector"
vector 60 WirelessA.Tclient59.wlan[0].radio radioMode:vector ETV
attr interpolationmode sample-hold
attr source radioModeChanged
attr title "Radio mode, vector"
vector 61 WirelessA.Tclient60.wlan[0].radio radioMode:vector ETV
attr interpolationmode sample-hold
attr source radioModeChanged
attr title "Radio mode, vector"
vector 62 WirelessA.Tclient61.wlan[0].radio radioMode:vector ETV
attr interpolationmode sample-hold
attr source radioModeChanged
attr title "Radio mode, vector"
vector 63 WirelessA.Tclient62.wlan[0].radio radioMode:vector ETV
attr interpolationmode sample-hold
attr source radioModeChanged
attr title "Radio mode, vector"
vector 64 WirelessA.Tclient63.wlan[0].radio radioMode:vector ETV
attr interpolationmode sample-hold
attr source radioModeChanged
attr title "Radio mode, vector"
vector 65 WirelessA.Tclient64.wlan[0].radio radioMode:vector ETV
attr interpolationmode sample-hold
attr source radioModeChanged
attr title "Radio mode, vector"
vector 66 WirelessA.Tclient65.wlan[0].radio radioMode:vector ETV
attr interpolationmode sample-hold
attr source radioModeChanged
attr title "Radio mode, vector"
vector 67 WirelessA.Tclient66.wlan[0].radio radioMode:vector ETV
attr interpolationmode sample-hold
attr source radioModeChanged
attr title "Radio mode, vector"
vector 68 WirelessA.Tclient67.wlan[0].radio radioMode:vector ETV
attr interpolationmode sample-hold
attr source radioModeChanged
attr title "Radio mode, vector"
vector 69 WirelessA.Tclient68.wlan[0].radio radioMode:vector ETV
attr interpolationmode sample-hold
attr source radioModeChanged
attr title "Radio mode, vector"
vector 70 WirelessA.Tclient69.wlan[0].radio radioMode:vector ETV
attr interpolationmode sample-hold
attr source radioModeChanged
attr title "Radio mode, vector"
vector 71 WirelessA.Tclient70.wlan[0].radio radioMode:vector ETV
attr interpolationmode sample-hold
attr source radioModeChanged
attr title "Radio mode, vector"
vector 72 WirelessA.Tclient71.wlan[0].radio radioMode:vector ETV
attr interpolationmode sample-hold
attr source radioModeChanged
attr title "Radio mode, vector"
vector 73 WirelessA.Tclient72.wlan[0].radio radioMode:vector ETV
attr interpolationmode sample-hold
attr source radioModeChanged
attr title "Radio mode, vector"
vector 74 WirelessA.Tclient73.wlan[0].radio radioMode:vector ETV
attr interpolationmode sample-hold
attr source radioModeChanged
attr title "Radio mode, vector"
vector 75 WirelessA.Tclient74.wlan[0].radio radioMode:vector ETV
attr interpolationmode sample-hold
attr source radioModeChanged
attr title "Radio mode, vector"
vector 76 WirelessA.Tclient75.wlan[0].radio radioMode:vector ETV
attr interpolationmode sample-hold
attr source radioModeChanged
attr title "Radio mode, vector"
vector 77 WirelessA.Tclient76.wlan[0].radio radioMode:vector ETV
attr interpolationmode sample-hold
attr source radioModeChanged
attr title "Radio mode, vector"
vector 78 WirelessA.Tclient77.wlan[0].radio radioMode:vector ETV
attr interpolationmode sample-hold
attr source radioModeChanged
attr title "Radio mode, vector"
vector 79 WirelessA.Tclient78.wlan[0].radio radioMode:vector ETV
attr interpolationmode sample-hold
attr source radioModeChanged
attr title "Radio mode, vector"
vector 80 WirelessA.Tclient79.wlan[0].radio radioMode:vector ETV
attr interpolationmode sample-hold
attr source radioModeChanged
attr title "Radio mode, vector"
vector 81 WirelessA.Tclient80.wlan[0].radio radioMode:vector ETV
attr interpolationmode sample-hold
attr source radioModeChanged
attr title "Radio mode, vector"
vector 82 WirelessA.Tclient81.wlan[0].radio radioMode:vector ETV
attr interpolationmode sample-hold
attr source radioModeChanged
attr title "Radio mode, vector"
vector 83 WirelessA.Tclient82.wlan[0].radio radioMode:vector ETV
attr interpolationmode sample-hold
attr source radioModeChanged
attr title "Radio mode, vector"
vector 84 WirelessA.Tclient83.wlan[0].radio radioMode:vector ETV
attr interpolationmode sample-hold
attr source radioModeChanged
attr title "Radio mode, vector"
vector 85 WirelessA.Tclient84.wlan[0].radio radioMode:vector ETV
attr interpolationmode sample-hold
attr source radioModeChanged
attr title "Radio mode, vector"
vector 86 WirelessA.Tclient85.wlan[0].radio radioMode:vector ETV
attr interpolationmode sample-hold
attr source radioModeChanged
attr title "Radio mode, vector"
vector 87 WirelessA.Tclient86.wlan[0].radio radioMode:vector ETV
attr interpolationmode sample-hold
attr source radioModeChanged
attr title "Radio mode, vector"
vector 88 WirelessA.Tclient87.wlan[0].radio radioMode:vector ETV
attr interpolationmode sample-hold
attr source radioModeChanged
attr title "Radio mode, vector"
vector 89 WirelessA.Tclient88.wlan[0].radio radioMode:vector ETV
attr interpolationmode sample-hold
attr source radioModeChanged
attr title "Radio mode, vector"
vector 90 WirelessA.Tclient89.wlan[0].radio radioMode:vector ETV
attr interpolationmode sample-hold
attr source radioModeChanged
attr title "Radio mode, vector"
vector 91 WirelessA.Tclient90.wlan[0].radio radioMode:vector ETV
attr interpolationmode sample-hold
attr source radioModeChanged
attr title "Radio mode, vector"
vector 92 WirelessA.Tclient91.wlan[0].radio radioMode:vector ETV
attr interpolationmode sample-hold
attr source radioModeChanged
attr title "Radio mode, vector"
vector 93 WirelessA.Tclient92.wlan[0].radio radioMode:vector ETV
attr interpolationmode sample-hold
attr source radioModeChanged
attr title "Radio mode, vector"
vector 94 WirelessA.Tclient93.wlan[0].radio radioMode:vector ETV
attr interpolationmode sample-hold
attr source radioModeChanged
attr title "Radio mode, vector"
vector 95 WirelessA.Tclient94.wlan[0].radio radioMode:vector ETV
attr interpolationmode sample-hold
attr source radioModeChanged
attr title "Radio mode, vector"
vector 96 WirelessA.Tclient95.wlan[0].radio radioMode:vector ETV
attr interpolationmode sample-hold
attr source radioModeChanged
attr title "Radio mode, vector"
vector 97 WirelessA.Tclient96.wlan[0].radio radioMode:vector ETV
attr interpolationmode sample-hold
attr source radioModeChanged
attr title "Radio mode, vector"
vector 98 WirelessA.Tclient97.wlan[0].radio radioMode:vector ETV
attr interpolationmode sample-hold
attr source radioModeChanged
attr title "Radio mode, vector"
vector 99 WirelessA.Tclient98.wlan[0].radio radioMode:vector ETV
attr interpolationmode sample-hold
attr source radioModeChanged
attr title "Radio mode, vector"
vector 100 WirelessA.Tclient99.wlan[0].radio radioMode:vector ETV
attr interpolationmode sample-hold
attr source radioModeChanged
attr title "Radio mode, vector"
vector 101 WirelessA.Tclient100.wlan[0].radio radioMode:vector ETV
attr interpolationmode sample-hold
attr source radioModeChanged
attr title "Radio mode, vector"
vector 102 WirelessA.Tclient101.wlan[0].radio radioMode:vector ETV
attr interpolationmode sample-hold
attr source radioModeChanged
attr title "Radio mode, vector"
vector 103 WirelessA.Tclient102.wlan[0].radio radioMode:vector ETV
attr interpolationmode sample-hold
attr source radioModeChanged
attr title "Radio mode, vector"
vector 104 WirelessA.Tclient103.wlan[0].radio radioMode:vector ETV
attr interpolationmode sample-hold
attr source radioModeChanged
attr title "Radio mode, vector"
vector 105 WirelessA.Tclient104.wlan[0].radio radioMode:vector ETV
attr interpolationmode sample-hold
attr source radioModeChanged
attr title "Radio mode, vector"
vector 106 WirelessA.Tclient105.wlan[0].radio radioMode:vector ETV
attr interpolationmode sample-hold
attr source radioModeChanged
attr title "Radio mode, vector"
vector 107 WirelessA.Tclient106.wlan[0].radio radioMode:vector ETV
attr interpolationmode sample-hold
attr source radioModeChanged
attr title "Radio mode, vector"
vector 108 WirelessA.Tclient107.wlan[0].radio radioMode:vector ETV
attr interpolationmode sample-hold
attr source radioModeChanged
attr title "Radio mode, vector"
vector 109 WirelessA.Tclient108.wlan[0].radio radioMode:vector ETV
attr interpolationmode sample-hold
attr source radioModeChanged
attr title "Radio mode, vector"
vector 110 WirelessA.Tclient109.wlan[0].radio radioMode:vector ETV
attr interpolationmode sample-hold
attr source radioModeChanged
attr title "Radio mode, vector"
vector 111 WirelessA.Tclient110.wlan[0].radio radioMode:vector ETV
attr interpolationmode sample-hold
attr source radioModeChanged
attr title "Radio mode, vector"
vector 112 WirelessA.Tclient111.wlan[0].radio radioMode:vector ETV
attr interpolationmode sample-hold
attr source radioModeChanged
attr title "Radio mode, vector"
vector 113 WirelessA.Tclient112.wlan[0].radio radioMode:vector ETV
attr interpolationmode sample-hold
attr source radioModeChanged
attr title "Radio mode, vector"
vector 114 WirelessA.Tclient113.wlan[0].radio radioMode:vector ETV
attr interpolationmode sample-hold
attr source radioModeChanged
attr title "Radio mode, vector"
vector 115 WirelessA.Tclient114.wlan[0].radio radioMode:vector ETV
attr interpolationmode sample-hold
attr source radioModeChanged
attr title "Radio mode, vector"
vector 116 WirelessA.Tclient115.wlan[0].radio radioMode:vector ETV
attr interpolationmode sample-hold
attr source radioModeChanged
attr title "Radio mode, vector"
vector 117 WirelessA.Tclient116.wlan[0].radio radioMode:vector ETV
attr interpolationmode sample-hold
attr source radioModeChanged
attr title "Radio mode, vector"
vector 118 WirelessA.Tclient117.wlan[0].radio radioMode:vector ETV
attr interpolationmode sample-hold
attr source radioModeChanged
attr title "Radio mode, vector"
vector 119 WirelessA.Tclient118.wlan[0].radio radioMode:vector ETV
attr interpolationmode sample-hold
attr source radioModeChanged
attr title "Radio mode, vector"
vector 120 WirelessA.Tclient119.wlan[0].radio radioMode:vector ETV
attr interpolationmode sample-hold
attr source radioModeChanged
attr title "Radio mode, vector"
vector 121 WirelessA.Tclient120.wlan[0].radio radioMode:vector ETV
attr interpolationmode sample-hold
attr source radioModeChanged
attr title "Radio mode, vector"
vector 122 WirelessA.Tclient121.wlan[0].radio radioMode:vector ETV
attr interpolationmode sample-hold
attr source radioModeChanged
attr title "Radio mode, vector"
vector 123 WirelessA.Tclient122.wlan[0].radio radioMode:vector ETV
attr interpolationmode sample-hold
attr source radioModeChanged
attr title "Radio mode, vector"
vector 124 WirelessA.Tclient123.wlan[0].radio radioMode:vector ETV
attr interpolationmode sample-hold
attr source radioModeChanged
attr title "Radio mode, vector"
vector 125 WirelessA.Tclient124.wlan[0].radio radioMode:vector ETV
attr interpolationmode sample-hold
attr source radioModeChanged
attr title "Radio mode, vector"
vector 126 WirelessA.Tclient125.wlan[0].radio radioMode:vector ETV
attr interpolationmode sample-hold
attr source radioModeChanged
attr title "Radio mode, vector"
vector 127 WirelessA.Tclient126.wlan[0].radio radioMode:vector ETV
attr interpolationmode sample-hold
attr source radioModeChanged
attr title "Radio mode, vector"
vector 128 WirelessA.Tclient127.wlan[0].radio radioMode:vector ETV
attr interpolationmode sample-hold
attr source radioModeChanged
attr title "Radio mode, vector"
vector 129 WirelessA.Tclient128.wlan[0].radio radioMode:vector ETV
attr interpolationmode sample-hold
attr source radioModeChanged
attr title "Radio mode, vector"
vector 130 WirelessA.Tclient129.wlan[0].radio radioMode:vector ETV
attr interpolationmode sample-hold
attr source radioModeChanged
attr title "Radio mode, vector"
vector 131 WirelessA.Tclient130.wlan[0].radio radioMode:vector ETV
attr interpolationmode sample-hold
attr source radioModeChanged
attr title "Radio mode, vector"
vector 132 WirelessA.Tclient131.wlan[0].radio radioMode:vector ETV
attr interpolationmode sample-hold
attr source radioModeChanged
attr title "Radio mode, vector"
vector 133 WirelessA.Tclient132.wlan[0].radio radioMode:vector ETV
attr interpolationmode sample-hold
attr source radioModeChanged
attr title "Radio mode, vector"
vector 134 WirelessA.Tclient133.wlan[0].radio radioMode:vector ETV
attr interpolationmode sample-hold
attr source radioModeChanged
attr title "Radio mode, vector"
vector 135 WirelessA.Tclient134.wlan[0].radio radioMode:vector ETV
attr interpolationmode sample-hold
attr source radioModeChanged
attr title "Radio mode, vector"
vector 136 WirelessA.Tclient135.wlan[0].radio radioMode:vector ETV
attr interpolationmode sample-hold
attr source radioModeChanged
attr title "Radio mode, vector"
vector 137 WirelessA.Tclient136.wlan[0].radio radioMode:vector ETV
attr interpolationmode sample-hold
attr source radioModeChanged
attr title "Radio mode, vector"
vector 138 WirelessA.Tclient137.wlan[0].radio radioMode:vector ETV
attr interpolationmode sample-hold
attr source radioModeChanged
attr title "Radio mode, vector"
vector 139 WirelessA.Tclient138.wlan[0].radio radioMode:vector ETV
attr interpolationmode sample-hold
attr source radioModeChanged
attr title "Radio mode, vector"
vector 140 WirelessA.Tclient139.wlan[0].radio radioMode:vector ETV
attr interpolationmode sample-hold
attr source radioModeChanged
attr title "Radio mode, vector"
vector 141 WirelessA.Tclient140.wlan[0].radio radioMode:vector ETV
attr interpolationmode sample-hold
attr source radioModeChanged
attr title "Radio mode, vector"
vector 142 WirelessA.Tclient141.wlan[0].radio radioMode:vector ETV
attr interpolationmode sample-hold
attr source radioModeChanged
attr title "Radio mode, vector"
vector 143 WirelessA.Tclient142.wlan[0].radio radioMode:vector ETV
attr interpolationmode sample-hold
attr source radioModeChanged
attr title "Radio mode, vector"
vector 144 WirelessA.Tclient143.wlan[0].radio radioMode:vector ETV
attr interpolationmode sample-hold
attr source radioModeChanged
attr title "Radio mode, vector"
vector 145 WirelessA.Tclient144.wlan[0].radio radioMode:vector ETV
attr interpolationmode sample-hold
attr source radioModeChanged
attr title "Radio mode, vector"
vector 146 WirelessA.Tclient145.wlan[0].radio radioMode:vector ETV
attr interpolationmode sample-hold
attr source radioModeChanged
attr title "Radio mode, vector"
vector 147 WirelessA.Tclient146.wlan[0].radio radioMode:vector ETV
attr interpolationmode sample-hold
attr source radioModeChanged
attr title "Radio mode, vector"
vector 148 WirelessA.Tclient147.wlan[0].radio radioMode:vector ETV
attr interpolationmode sample-hold
attr source radioModeChanged
attr title "Radio mode, vector"
vector 149 WirelessA.Tclient148.wlan[0].radio radioMode:vector ETV
attr interpolationmode sample-hold
attr source radioModeChanged
attr title "Radio mode, vector"
vector 150 WirelessA.Tclient149.wlan[0].radio radioMode:vector ETV
attr interpolationmode sample-hold
attr source radioModeChanged
attr title "Radio mode, vector"
vector 151 WirelessA.Tserveur.wlan[0].radio receptionState:vector ETV
attr interpolationmode sample-hold
attr source receptionStateChanged
attr title "Radio reception state, vector"
vector 152 WirelessA.Tclient.wlan[0].radio receptionState:vector ETV
attr interpolationmode sample-hold
attr source receptionStateChanged
attr title "Radio reception state, vector"
vector 153 WirelessA.Tclient1.wlan[0].radio receptionState:vector ETV
attr interpolationmode sample-hold
attr source receptionStateChanged
attr title "Radio reception state, vector"
vector 154 WirelessA.Tclient2.wlan[0].radio receptionState:vector ETV
attr interpolationmode sample-hold
attr source receptionStateChanged
attr title "Radio reception state, vector"
vector 155 WirelessA.Tclient3.wlan[0].radio receptionState:vector ETV
attr interpolationmode sample-hold
attr source receptionStateChanged
attr title "Radio reception state, vector"
vector 156 WirelessA.Tclient4.wlan[0].radio receptionState:vector ETV
attr interpolationmode sample-hold
attr source receptionStateChanged
attr title "Radio reception state, vector"
vector 157 WirelessA.Tclient5.wlan[0].radio receptionState:vector ETV
attr interpolationmode sample-hold
attr source receptionStateChanged
attr title "Radio reception state, vector"
vector 158 WirelessA.Tclient6.wlan[0].radio receptionState:vector ETV
attr interpolationmode sample-hold
attr source receptionStateChanged
attr title "Radio reception state, vector"
vector 159 WirelessA.Tclient7.wlan[0].radio receptionState:vector ETV
attr interpolationmode sample-hold
attr source receptionStateChanged
attr title "Radio reception state, vector"
vector 160 WirelessA.Tclient8.wlan[0].radio receptionState:vector ETV
attr interpolationmode sample-hold
attr source receptionStateChanged
attr title "Radio reception state, vector"
vector 161 WirelessA.Tclient9.wlan[0].radio receptionState:vector ETV
attr interpolationmode sample-hold
attr source receptionStateChanged
attr title "Radio reception state, vector"
vector 162 WirelessA.Tclient10.wlan[0].radio receptionState:vector ETV
attr interpolationmode sample-hold
attr source receptionStateChanged
attr title "Radio reception state, vector"
vector 163 WirelessA.Tclient11.wlan[0].radio receptionState:vector ETV
attr interpolationmode sample-hold
attr source receptionStateChanged
attr title "Radio reception state, vector"
vector 164 WirelessA.Tclient12.wlan[0].radio receptionState:vector ETV
attr interpolationmode sample-hold
attr source receptionStateChanged
attr title "Radio reception state, vector"
vector 165 WirelessA.Tclient13.wlan[0].radio receptionState:vector ETV
attr interpolationmode sample-hold
attr source receptionStateChanged
attr title "Radio reception state, vector"
vector 166 WirelessA.Tclient14.wlan[0].radio receptionState:vector ETV
attr interpolationmode sample-hold
attr source receptionStateChanged
attr title "Radio reception state, vector"
vector 167 WirelessA.Tclient15.wlan[0].radio receptionState:vector ETV
attr interpolationmode sample-hold
attr source receptionStateChanged
attr title "Radio reception state, vector"
vector 168 WirelessA.Tclient16.wlan[0].radio receptionState:vector ETV
attr interpolationmode sample-hold
attr source receptionStateChanged
attr title "Radio reception state, vector"
vector 169 WirelessA.Tclient17.wlan[0].radio receptionState:vector ETV
attr interpolationmode sample-hold
attr source receptionStateChanged
attr title "Radio reception state, vector"
vector 170 WirelessA.Tclient18.wlan[0].radio receptionState:vector ETV
attr interpolationmode sample-hold
attr source receptionStateChanged
attr title "Radio reception state, vector"
vector 171 WirelessA.Tclient19.wlan[0].radio receptionState:vector ETV
attr interpolationmode sample-hold
attr source receptionStateChanged
attr title "Radio reception state, vector"
vector 172 WirelessA.Tclient20.wlan[0].radio receptionState:vector ETV
attr interpolationmode sample-hold
attr source receptionStateChanged
attr title "Radio reception state, vector"
vector 173 WirelessA.Tclient21.wlan[0].radio receptionState:vector ETV
attr interpolationmode sample-hold
attr source receptionStateChanged
attr title "Radio reception state, vector"
vector 174 WirelessA.Tclient22.wlan[0].radio receptionState:vector ETV
attr interpolationmode sample-hold
attr source receptionStateChanged
attr title "Radio reception state, vector"
vector 175 WirelessA.Tclient23.wlan[0].radio receptionState:vector ETV
attr interpolationmode sample-hold
attr source receptionStateChanged
attr title "Radio reception state, vector"
vector 176 WirelessA.Tclient24.wlan[0].radio receptionState:vector ETV
attr interpolationmode sample-hold
attr source receptionStateChanged
attr title "Radio reception state, vector"
vector 177 WirelessA.Tclient25.wlan[0].radio receptionState:vector ETV
attr interpolationmode sample-hold
attr source receptionStateChanged
attr title "Radio reception state, vector"
vector 178 WirelessA.Tclient26.wlan[0].radio receptionState:vector ETV
attr interpolationmode sample-hold
attr source receptionStateChanged
attr title "Radio reception state, vector"
vector 179 WirelessA.Tclient27.wlan[0].radio receptionState:vector ETV
attr interpolationmode sample-hold
attr source receptionStateChanged
attr title "Radio reception state, vector"
vector 180 WirelessA.Tclient28.wlan[0].radio receptionState:vector ETV
attr interpolationmode sample-hold
attr source receptionStateChanged
attr title "Radio reception state, vector"
vector 181 WirelessA.Tclient29.wlan[0].radio receptionState:vector ETV
attr interpolationmode sample-hold
attr source receptionStateChanged
attr title "Radio reception state, vector"
vector 182 WirelessA.Tclient30.wlan[0].radio receptionState:vector ETV
attr interpolationmode sample-hold
attr source receptionStateChanged
attr title "Radio reception state, vector"
vector 183 WirelessA.Tclient31.wlan[0].radio receptionState:vector ETV
attr interpolationmode sample-hold
attr source receptionStateChanged
attr title "Radio reception state, vector"
vector 184 WirelessA.Tclient32.wlan[0].radio receptionState:vector ETV
attr interpolationmode sample-hold
attr source receptionStateChanged
attr title "Radio reception state, vector"
vector 185 WirelessA.Tclient33.wlan[0].radio receptionState:vector ETV
attr interpolationmode sample-hold
attr source receptionStateChanged
attr title "Radio reception state, vector"
vector 186 WirelessA.Tclient34.wlan[0].radio receptionState:vector ETV
attr interpolationmode sample-hold
attr source receptionStateChanged
attr title "Radio reception state, vector"
vector 187 WirelessA.Tclient35.wlan[0].radio receptionState:vector ETV
attr interpolationmode sample-hold
attr source receptionStateChanged
attr title "Radio reception state, vector"
vector 188 WirelessA.Tclient36.wlan[0].radio receptionState:vector ETV
attr interpolationmode sample-hold
attr source receptionStateChanged
attr title "Radio reception state, vector"
vector 189 WirelessA.Tclient37.wlan[0].radio receptionState:vector ETV
attr interpolationmode sample-hold
attr source receptionStateChanged
attr title "Radio reception state, vector"
vector 190 WirelessA.Tclient38.wlan[0].radio receptionState:vector ETV
attr interpolationmode sample-hold
attr source receptionStateChanged
attr title "Radio reception state, vector"
vector 191 WirelessA.Tclient39.wlan[0].radio receptionState:vector ETV
attr interpolationmode sample-hold
attr source receptionStateChanged
attr title "Radio reception state, vector"
vector 192 WirelessA.Tclient40.wlan[0].radio receptionState:vector ETV
attr interpolationmode sample-hold
attr source receptionStateChanged
attr title "Radio reception state, vector"
vector 193 WirelessA.Tclient41.wlan[0].radio receptionState:vector ETV
attr interpolationmode sample-hold
attr source receptionStateChanged
attr title "Radio reception state, vector"
vector 194 WirelessA.Tclient42.wlan[0].radio receptionState:vector ETV
attr interpolationmode sample-hold
attr source receptionStateChanged
attr title "Radio reception state, vector"
vector 195 WirelessA.Tclient43.wlan[0].radio receptionState:vector ETV
attr interpolationmode sample-hold
attr source receptionStateChanged
attr title "Radio reception state, vector"
vector 196 WirelessA.Tclient44.wlan[0].radio receptionState:vector ETV
attr interpolationmode sample-hold
attr source receptionStateChanged
attr title "Radio reception state, vector"
vector 197 WirelessA.Tclient45.wlan[0].radio receptionState:vector ETV
attr interpolationmode sample-hold
attr source receptionStateChanged
attr title "Radio reception state, vector"
vector 198 WirelessA.Tclient46.wlan[0].radio receptionState:vector ETV
attr interpolationmode sample-hold
attr source receptionStateChanged
attr title "Radio reception state, vector"
vector 199 WirelessA.Tclient47.wlan[0].radio receptionState:vector ETV
attr interpolationmode sample-hold
attr source receptionStateChanged
attr title "Radio reception state, vector"
vector 200 WirelessA.Tclient48.wlan[0].radio receptionState:vector ETV
attr interpolationmode sample-hold
attr source receptionStateChanged
attr title "Radio reception state, vector"
vector 201 WirelessA.Tclient49.wlan[0].radio receptionState:vector ETV
attr interpolationmode sample-hold
attr source receptionStateChanged
attr title "Radio reception state, vector"
vector 202 WirelessA.Tclient50.wlan[0].radio receptionState:vector ETV
attr interpolationmode sample-hold
attr source receptionStateChanged
attr title "Radio reception state, vector"
vector 203 WirelessA.Tclient51.wlan[0].radio receptionState:vector ETV
attr interpolationmode sample-hold
attr source receptionStateChanged
attr title "Radio reception state, vector"
vector 204 WirelessA.Tclient52.wlan[0].radio receptionState:vector ETV
attr interpolationmode sample-hold
attr source receptionStateChanged
attr title "Radio reception state, vector"
vector 205 WirelessA.Tclient53.wlan[0].radio receptionState:vector ETV
attr interpolationmode sample-hold
attr source receptionStateChanged
attr title "Radio reception state, vector"
vector 206 WirelessA.Tclient54.wlan[0].radio receptionState:vector ETV
attr interpolationmode sample-hold
attr source receptionStateChanged
attr title "Radio reception state, vector"
vector 207 WirelessA.Tclient55.wlan[0].radio receptionState:vector ETV
attr interpolationmode sample-hold
attr source receptionStateChanged
attr title "Radio reception state, vector"
vector 208 WirelessA.Tclient56.wlan[0].radio receptionState:vector ETV
attr interpolationmode sample-hold
attr source receptionStateChanged
attr title "Radio reception state, vector"
vector 209 WirelessA.Tclient57.wlan[0].radio receptionState:vector ETV
attr interpolationmode sample-hold
attr source receptionStateChanged
attr title "Radio reception state, vector"
vector 210 WirelessA.Tclient58.wlan[0].radio receptionState:vector ETV
attr interpolationmode sample-hold
attr source receptionStateChanged
attr title "Radio reception state, vector"
vector 211 WirelessA.Tclient59.wlan[0].radio receptionState:vector ETV
attr interpolationmode sample-hold
attr source receptionStateChanged
attr title "Radio reception state, vector"
vector 212 WirelessA.Tclient60.wlan[0].radio receptionState:vector ETV
attr interpolationmode sample-hold
attr source receptionStateChanged
attr title "Radio reception state, vector"
vector 213 WirelessA.Tclient61.wlan[0].radio receptionState:vector ETV
attr interpolationmode sample-hold
attr source receptionStateChanged
attr title "Radio reception state, vector"
vector 214 WirelessA.Tclient62.wlan[0].radio receptionState:vector ETV
attr interpolationmode sample-hold
attr source receptionStateChanged
attr title "Radio reception state, vector"
vector 215 WirelessA.Tclient63.wlan[0].radio receptionState:vector ETV
attr interpolationmode sample-hold
attr source receptionStateChanged
attr title "Radio reception state, vector"
vector 216 WirelessA.Tclient64.wlan[0].radio receptionState:vector ETV
attr interpolationmode sample-hold
attr source receptionStateChanged
attr title "Radio reception state, vector"
vector 217 WirelessA.Tclient65.wlan[0].radio receptionState:vector ETV
attr interpolationmode sample-hold
attr source receptionStateChanged
attr title "Radio reception state, vector"
vector 218 WirelessA.Tclient66.wlan[0].radio receptionState:vector ETV
attr interpolationmode sample-hold
attr source receptionStateChanged
attr title "Radio reception state, vector"
vector 219 WirelessA.Tclient67.wlan[0].radio receptionState:vector ETV
attr interpolationmode sample-hold
attr source receptionStateChanged
attr title "Radio reception state, vector"
vector 220 WirelessA.Tclient68.wlan[0].radio receptionState:vector ETV
attr interpolationmode sample-hold
attr source receptionStateChanged
attr title "Radio reception state, vector"
vector 221 WirelessA.Tclient69.wlan[0].radio receptionState:vector ETV
attr interpolationmode sample-hold
attr source receptionStateChanged
attr title "Radio reception state, vector"
vector 222 WirelessA.Tclient70.wlan[0].radio receptionState:vector ETV
attr interpolationmode sample-hold
attr source receptionStateChanged
attr title "Radio reception state, vector"
vector 223 WirelessA.Tclient71.wlan[0].radio receptionState:vector ETV
attr interpolationmode sample-hold
attr source receptionStateChanged
attr title "Radio reception state, vector"
vector 224 WirelessA.Tclient72.wlan[0].radio receptionState:vector ETV
attr interpolationmode sample-hold
attr source receptionStateChanged
attr title "Radio reception state, vector"
vector 225 WirelessA.Tclient73.wlan[0].radio receptionState:vector ETV
attr interpolationmode sample-hold
attr source receptionStateChanged
attr title "Radio reception state, vector"
vector 226 WirelessA.Tclient74.wlan[0].radio receptionState:vector ETV
attr interpolationmode sample-hold
attr source receptionStateChanged
attr title "Radio reception state, vector"
vector 227 WirelessA.Tclient75.wlan[0].radio receptionState:vector ETV
attr interpolationmode sample-hold
attr source receptionStateChanged
attr title "Radio reception state, vector"
vector 228 WirelessA.Tclient76.wlan[0].radio receptionState:vector ETV
attr interpolationmode sample-hold
attr source receptionStateChanged
attr title "Radio reception state, vector"
vector 229 WirelessA.Tclient77.wlan[0].radio receptionState:vector ETV
attr interpolationmode sample-hold
attr source receptionStateChanged
attr title "Radio reception state, vector"
vector 230 WirelessA.Tclient78.wlan[0].radio receptionState:vector ETV
attr interpolationmode sample-hold
attr source receptionStateChanged
attr title "Radio reception state, vector"
vector 231 WirelessA.Tclient79.wlan[0].radio receptionState:vector ETV
attr interpolationmode sample-hold
attr source receptionStateChanged
attr title "Radio reception state, vector"
vector 232 WirelessA.Tclient80.wlan[0].radio receptionState:vector ETV
attr interpolationmode sample-hold
attr source receptionStateChanged
attr title "Radio reception state, vector"
vector 233 WirelessA.Tclient81.wlan[0].radio receptionState:vector ETV
attr interpolationmode sample-hold
attr source receptionStateChanged
attr title "Radio reception state, vector"
vector 234 WirelessA.Tclient82.wlan[0].radio receptionState:vector ETV
attr interpolationmode sample-hold
attr source receptionStateChanged
attr title "Radio reception state, vector"
vector 235 WirelessA.Tclient83.wlan[0].radio receptionState:vector ETV
attr interpolationmode sample-hold
attr source receptionStateChanged
attr title "Radio reception state, vector"
vector 236 WirelessA.Tclient84.wlan[0].radio receptionState:vector ETV
attr interpolationmode sample-hold
attr source receptionStateChanged
attr title "Radio reception state, vector"
vector 237 WirelessA.Tclient85.wlan[0].radio receptionState:vector ETV
attr interpolationmode sample-hold
attr source receptionStateChanged
attr title "Radio reception state, vector"
vector 238 WirelessA.Tclient86.wlan[0].radio receptionState:vector ETV
attr interpolationmode sample-hold
attr source receptionStateChanged
attr title "Radio reception state, vector"
vector 239 WirelessA.Tclient87.wlan[0].radio receptionState:vector ETV
attr interpolationmode sample-hold
attr source receptionStateChanged
attr title "Radio reception state, vector"
vector 240 WirelessA.Tclient88.wlan[0].radio receptionState:vector ETV
attr interpolationmode sample-hold
attr source receptionStateChanged
attr title "Radio reception state, vector"
vector 241 WirelessA.Tclient89.wlan[0].radio receptionState:vector ETV
attr interpolationmode sample-hold
attr source receptionStateChanged
attr title "Radio reception state, vector"
vector 242 WirelessA.Tclient90.wlan[0].radio receptionState:vector ETV
attr interpolationmode sample-hold
attr source receptionStateChanged
attr title "Radio reception state, vector"
vector 243 WirelessA.Tclient91.wlan[0].radio receptionState:vector ETV
attr interpolationmode sample-hold
attr source receptionStateChanged
attr title "Radio reception state, vector"
vector 244 WirelessA.Tclient92.wlan[0].radio receptionState:vector ETV
attr interpolationmode sample-hold
attr source receptionStateChanged
attr title "Radio reception state, vector"
vector 245 WirelessA.Tclient93.wlan[0].radio receptionState:vector ETV
attr interpolationmode sample-hold
attr source receptionStateChanged
attr title "Radio reception state, vector"
vector 246 WirelessA.Tclient94.wlan[0].radio receptionState:vector ETV
attr interpolationmode sample-hold
attr source receptionStateChanged
attr title "Radio reception state, vector"
vector 247 WirelessA.Tclient95.wlan[0].radio receptionState:vector ETV
attr interpolationmode sample-hold
attr source receptionStateChanged
attr title "Radio reception state, vector"
vector 248 WirelessA.Tclient96.wlan[0].radio receptionState:vector ETV
attr interpolationmode sample-hold
attr source receptionStateChanged
attr title "Radio reception state, vector"
vector 249 WirelessA.Tclient97.wlan[0].radio receptionState:vector ETV
attr interpolationmode sample-hold
attr source receptionStateChanged
attr title "Radio reception state, vector"
vector 250 WirelessA.Tclient98.wlan[0].radio receptionState:vector ETV
attr interpolationmode sample-hold
attr source receptionStateChanged
attr title "Radio reception state, vector"
vector 251 WirelessA.Tclient99.wlan[0].radio receptionState:vector ETV
attr interpolationmode sample-hold
attr source receptionStateChanged
attr title "Radio reception state, vector"
vector 252 WirelessA.Tclient100.wlan[0].radio receptionState:vector ETV
attr interpolationmode sample-hold
attr source receptionStateChanged
attr title "Radio reception state, vector"
vector 253 WirelessA.Tclient101.wlan[0].radio receptionState:vector ETV
attr interpolationmode sample-hold
attr source receptionStateChanged
attr title "Radio reception state, vector"
vector 254 WirelessA.Tclient102.wlan[0].radio receptionState:vector ETV
attr interpolationmode sample-hold
attr source receptionStateChanged
attr title "Radio reception state, vector"
vector 255 WirelessA.Tclient103.wlan[0].radio receptionState:vector ETV
attr interpolationmode sample-hold
attr source receptionStateChanged
attr title "Radio reception state, vector"
vector 256 WirelessA.Tclient104.wlan[0].radio receptionState:vector ETV
attr interpolationmode sample-hold
attr source receptionStateChanged
attr title "Radio reception state, vector"
vector 257 WirelessA.Tclient105.wlan[0].radio receptionState:vector ETV
attr interpolationmode sample-hold
attr source receptionStateChanged
attr title "Radio reception state, vector"
vector 258 WirelessA.Tclient106.wlan[0].radio receptionState:vector ETV
attr interpolationmode sample-hold
attr source receptionStateChanged
attr title "Radio reception state, vector"
vector 259 WirelessA.Tclient107.wlan[0].radio receptionState:vector ETV
attr interpolationmode sample-hold
attr source receptionStateChanged
attr title "Radio reception state, vector"
vector 260 WirelessA.Tclient108.wlan[0].radio receptionState:vector ETV
attr interpolationmode sample-hold
attr source receptionStateChanged
attr title "Radio reception state, vector"
vector 261 WirelessA.Tclient109.wlan[0].radio receptionState:vector ETV
attr interpolationmode sample-hold
attr source receptionStateChanged
attr title "Radio reception state, vector"
vector 262 WirelessA.Tclient110.wlan[0].radio receptionState:vector ETV
attr interpolationmode sample-hold
attr source receptionStateChanged
attr title "Radio reception state, vector"
vector 263 WirelessA.Tclient111.wlan[0].radio receptionState:vector ETV
attr interpolationmode sample-hold
attr source receptionStateChanged
attr title "Radio reception state, vector"
vector 264 WirelessA.Tclient112.wlan[0].radio receptionState:vector ETV
attr interpolationmode sample-hold
attr source receptionStateChanged
attr title "Radio reception state, vector"
vector 265 WirelessA.Tclient113.wlan[0].radio receptionState:vector ETV
attr interpolationmode sample-hold
attr source receptionStateChanged
attr title "Radio reception state, vector"
vector 266 WirelessA.Tclient114.wlan[0].radio receptionState:vector ETV
attr interpolationmode sample-hold
attr source receptionStateChanged
attr title "Radio reception state, vector"
vector 267 WirelessA.Tclient115.wlan[0].radio receptionState:vector ETV
attr interpolationmode sample-hold
attr source receptionStateChanged
attr title "Radio reception state, vector"
vector 268 WirelessA.Tclient116.wlan[0].radio receptionState:vector ETV
attr interpolationmode sample-hold
attr source receptionStateChanged
attr title "Radio reception state, vector"
vector 269 WirelessA.Tclient117.wlan[0].radio receptionState:vector ETV
attr interpolationmode sample-hold
attr source receptionStateChanged
attr title "Radio reception state, vector"
vector 270 WirelessA.Tclient118.wlan[0].radio receptionState:vector ETV
attr interpolationmode sample-hold
attr source receptionStateChanged
attr title "Radio reception state, vector"
vector 271 WirelessA.Tclient119.wlan[0].radio receptionState:vector ETV
attr interpolationmode sample-hold
attr source receptionStateChanged
attr title "Radio reception state, vector"
vector 272 WirelessA.Tclient120.wlan[0].radio receptionState:vector ETV
attr interpolationmode sample-hold
attr source receptionStateChanged
attr title "Radio reception state, vector"
vector 273 WirelessA.Tclient121.wlan[0].radio receptionState:vector ETV
attr interpolationmode sample-hold
attr source receptionStateChanged
attr title "Radio reception state, vector"
vector 274 WirelessA.Tclient122.wlan[0].radio receptionState:vector ETV
attr interpolationmode sample-hold
attr source receptionStateChanged
attr title "Radio reception state, vector"
vector 275 WirelessA.Tclient123.wlan[0].radio receptionState:vector ETV
attr interpolationmode sample-hold
attr source receptionStateChanged
attr title "Radio reception state, vector"
vector 276 WirelessA.Tclient124.wlan[0].radio receptionState:vector ETV
attr interpolationmode sample-hold
attr source receptionStateChanged
attr title "Radio reception state, vector"
vector 277 WirelessA.Tclient125.wlan[0].radio receptionState:vector ETV
attr interpolationmode sample-hold
attr source receptionStateChanged
attr title "Radio reception state, vector"
vector 278 WirelessA.Tclient126.wlan[0].radio receptionState:vector ETV
attr interpolationmode sample-hold
attr source receptionStateChanged
attr title "Radio reception state, vector"
vector 279 WirelessA.Tclient127.wlan[0].radio receptionState:vector ETV
attr interpolationmode sample-hold
attr source receptionStateChanged
attr title "Radio reception state, vector"
vector 280 WirelessA.Tclient128.wlan[0].radio receptionState:vector ETV
attr interpolationmode sample-hold
attr source receptionStateChanged
attr title "Radio reception state, vector"
vector 281 WirelessA.Tclient129.wlan[0].radio receptionState:vector ETV
attr interpolationmode sample-hold
attr source receptionStateChanged
attr title "Radio reception state, vector"
vector 282 WirelessA.Tclient130.wlan[0].radio receptionState:vector ETV
attr interpolationmode sample-hold
attr source receptionStateChanged
attr title "Radio reception state, vector"
vector 283 WirelessA.Tclient131.wlan[0].radio receptionState:vector ETV
attr interpolationmode sample-hold
attr source receptionStateChanged
attr title "Radio reception state, vector"
vector 284 WirelessA.Tclient132.wlan[0].radio receptionState:vector ETV
attr interpolationmode sample-hold
attr source receptionStateChanged
attr title "Radio reception state, vector"
vector 285 WirelessA.Tclient133.wlan[0].radio receptionState:vector ETV
attr interpolationmode sample-hold
attr source receptionStateChanged
attr title "Radio reception state, vector"
vector 286 WirelessA.Tclient134.wlan[0].radio receptionState:vector ETV
attr interpolationmode sample-hold
attr source receptionStateChanged
attr title "Radio reception state, vector"
vector 287 WirelessA.Tclient135.wlan[0].radio receptionState:vector ETV
attr interpolationmode sample-hold
attr source receptionStateChanged
attr title "Radio reception state, vector"
vector 288 WirelessA.Tclient136.wlan[0].radio receptionState:vector ETV
attr interpolationmode sample-hold
attr source receptionStateChanged
attr title "Radio reception state, vector"
vector 289 WirelessA.Tclient137.wlan[0].radio receptionState:vector ETV
attr interpolationmode sample-hold
attr source receptionStateChanged
attr title "Radio reception state, vector"
vector 290 WirelessA.Tclient138.wlan[0].radio receptionState:vector ETV
attr interpolationmode sample-hold
attr source receptionStateChanged
attr title "Radio reception state, vector"
vector 291 WirelessA.Tclient139.wlan[0].radio receptionState:vector ETV
attr interpolationmode sample-hold
attr source receptionStateChanged
attr title "Radio reception state, vector"
vector 292 WirelessA.Tclient140.wlan[0].radio receptionState:vector ETV
attr interpolationmode sample-hold
attr source receptionStateChanged
attr title "Radio reception state, vector"
vector 293 WirelessA.Tclient141.wlan[0].radio receptionState:vector ETV
attr interpolationmode sample-hold
attr source receptionStateChanged
attr title "Radio reception state, vector"
vector 294 WirelessA.Tclient142.wlan[0].radio receptionState:vector ETV
attr interpolationmode sample-hold
attr source receptionStateChanged
attr title "Radio reception state, vector"
vector 295 WirelessA.Tclient143.wlan[0].radio receptionState:vector ETV
attr interpolationmode sample-hold
attr source receptionStateChanged
attr title "Radio reception state, vector"
vector 296 WirelessA.Tclient144.wlan[0].radio receptionState:vector ETV
attr interpolationmode sample-hold
attr source receptionStateChanged
attr title "Radio reception state, vector"
vector 297 WirelessA.Tclient145.wlan[0].radio receptionState:vector ETV
attr interpolationmode sample-hold
attr source receptionStateChanged
attr title "Radio reception state, vector"
vector 298 WirelessA.Tclient146.wlan[0].radio receptionState:vector ETV
attr interpolationmode sample-hold
attr source receptionStateChanged
attr title "Radio reception state, vector"
vector 299 WirelessA.Tclient147.wlan[0].radio receptionState:vector ETV
attr interpolationmode sample-hold
attr source receptionStateChanged
attr title "Radio reception state, vector"
vector 300 WirelessA.Tclient148.wlan[0].radio receptionState:vector ETV
attr interpolationmode sample-hold
attr source receptionStateChanged
attr title "Radio reception state, vector"
vector 301 WirelessA.Tclient149.wlan[0].radio receptionState:vector ETV
attr interpolationmode sample-hold
attr source receptionStateChanged
attr title "Radio reception state, vector"
vector 302 WirelessA.Tserveur.app[0] packetSent:vector(packetBytes) ETV
attr interpolationmode none
attr source packetSent
attr title "packets sent, vector(packetBytes)"
vector 303 WirelessA.Tserveur.udp packetSent:vector(packetBytes) ETV
attr interpolationmode none
attr source packetSent
attr title "packets sent, vector(packetBytes)"
vector 304 WirelessA.Tserveur.wlan[0].mac rcvdPkFromHl:vector(packetBytes) ETV
attr interpolationmode none
attr source packetReceivedFromUpper
attr title "packets received from higher layer, vector(packetBytes)"
vector 305 WirelessA.Tserveur.wlan[0].mac.queue packetPushed:vector(packetBytes) ETV
attr interpolationmode none
attr title "packet pushed, vector(packetBytes)"
vector 306 WirelessA.Tserveur.wlan[0].mac.queue queueLength:vector ETV
attr interpolationmode sample-hold
attr source "count(packetPushed) - count(packetPopped) - count(packetRemoved) - count(packetDropped)"
attr title "queue length, vector"
vector 307 WirelessA.Tserveur.wlan[0].mac.queue packetPopped:vector(packetBytes) ETV
attr interpolationmode none
attr title "packet popped, vector(packetBytes)"
vector 308 WirelessA.Tserveur.wlan[0].mac.queue queueingTime:vector ETV
attr interpolationmode none
attr source queueingTime(packetPopped)
attr title "queueing times, vector"
attr unit s
vector 309 WirelessA.Tserveur.wlan[0].radio transmissionState:vector ETV
attr interpolationmode sample-hold
attr source transmissionStateChanged
attr title "Radio transmission state, vector"
vector 310 WirelessA.Tserveur.wlan[0].mac sentDownPk:vector(packetBytes) ETV
attr interpolationmode none
attr source packetSentToLower
attr title "packets sent to lower layer, vector(packetBytes)"
vector 311 WirelessA.Tclient75.wlan[0].mac rcvdPkFromLl:vector(packetBytes) ETV
attr interpolationmode none
attr source packetReceivedFromLower
attr title "packets received from lower layer, vector(packetBytes)"
vector 312 WirelessA.Tclient75.wlan[0].mac packetDropNotAddressedToUs:vector(packetBytes) ETV
attr interpolationmode none
attr source packetDropReasonIsNotAddressedToUs(packetDropped)
attr title "packet drop: not addressed to us, vector(packetBytes)"
vector 313 WirelessA.Tclient32.wlan[0].mac rcvdPkFromLl:vector(packetBytes) ETV
attr interpolationmode none
attr source packetReceivedFromLower
attr title "packets received from lower layer, vector(packetBytes)"
vector 314 WirelessA.Tclient32.wlan[0].mac packetDropNotAddressedToUs:vector(packetBytes) ETV
attr interpolationmode none
attr source packetDropReasonIsNotAddressedToUs(packetDropped)
attr title "packet drop: not addressed to us, vector(packetBytes)"
vector 315 WirelessA.Tclient72.wlan[0].mac rcvdPkFromLl:vector(packetBytes) ETV
attr interpolationmode none
attr source packetReceivedFromLower
attr title "packets received from lower layer, vector(packetBytes)"
vector 316 WirelessA.Tclient72.wlan[0].mac packetDropNotAddressedToUs:vector(packetBytes) ETV
attr interpolationmode none
attr source packetDropReasonIsNotAddressedToUs(packetDropped)
attr title "packet drop: not addressed to us, vector(packetBytes)"
vector 317 WirelessA.Tclient2.wlan[0].mac rcvdPkFromLl:vector(packetBytes) ETV
attr interpolationmode none
attr source packetReceivedFromLower
attr title "packets received from lower layer, vector(packetBytes)"
vector 318 WirelessA.Tclient2.wlan[0].mac packetDropNotAddressedToUs:vector(packetBytes) ETV
attr interpolationmode none
attr source packetDropReasonIsNotAddressedToUs(packetDropped)
attr title "packet drop: not addressed to us, vector(packetBytes)"
vector 319 WirelessA.Tclient38.wlan[0].mac rcvdPkFromLl:vector(packetBytes) ETV
attr interpolationmode none
attr source packetReceivedFromLower
attr title "packets received from lower layer, vector(packetBytes)"
vector 320 WirelessA.Tclient38.wlan[0].mac packetDropNotAddressedToUs:vector(packetBytes) ETV
attr interpolationmode none
attr source packetDropReasonIsNotAddressedToUs(packetDropped)
attr title "packet drop: not addressed to us, vector(packetBytes)"
vector 321 WirelessA.Tclient94.wlan[0].mac rcvdPkFromLl:vector(packetBytes) ETV
attr interpolationmode none
attr source packetReceivedFromLower
attr title "packets received from lower layer, vector(packetBytes)"
vector 322 WirelessA.Tclient94.wlan[0].mac packetDropNotAddressedToUs:vector(packetBytes) ETV
attr interpolationmode none
attr source packetDropReasonIsNotAddressedToUs(packetDropped)
attr title "packet drop: not addressed to us, vector(packetBytes)"
vector 323 WirelessA.Tclient82.wlan[0].mac rcvdPkFromLl:vector(packetBytes) ETV
attr interpolationmode none
attr source packetReceivedFromLower
attr title "packets received from lower layer, vector(packetBytes)"
vector 324 WirelessA.Tclient82.wlan[0].mac packetDropNotAddressedToUs:vector(packetBytes) ETV
attr interpolationmode none
attr source packetDropReasonIsNotAddressedToUs(packetDropped)
attr title "packet drop: not addressed to us, vector(packetBytes)"
vector 325 WirelessA.Tclient28.wlan[0].mac rcvdPkFromLl:vector(packetBytes) ETV
attr interpolationmode none
attr source packetReceivedFromLower
attr title "packets received from lower layer, vector(packetBytes)"
vector 326 WirelessA.Tclient28.wlan[0].mac packetDropNotAddressedToUs:vector(packetBytes) ETV
attr interpolationmode none
attr source packetDropReasonIsNotAddressedToUs(packetDropped)
attr title "packet drop: not addressed to us, vector(packetBytes)"
vector 327 WirelessA.Tclient41.wlan[0].mac rcvdPkFromLl:vector(packetBytes) ETV
attr interpolationmode none
attr source packetReceivedFromLower
attr title "packets received from lower layer, vector(packetBytes)"
vector 328 WirelessA.Tclient41.wlan[0].mac packetDropNotAddressedToUs:vector(packetBytes) ETV
attr interpolationmode none
attr source packetDropReasonIsNotAddressedToUs(packetDropped)
attr title "packet drop: not addressed to us, vector(packetBytes)"
vector 329 WirelessA.Tclient30.wlan[0].mac rcvdPkFromLl:vector(packetBytes) ETV
attr interpolationmode none
attr source packetReceivedFromLower
attr title "packets received from lower layer, vector(packetBytes)"
vector 330 WirelessA.Tclient30.wlan[0].mac packetDropNotAddressedToUs:vector(packetBytes) ETV
attr interpolationmode none
attr source packetDropReasonIsNotAddressedToUs(packetDropped)
attr title "packet drop: not addressed to us, vector(packetBytes)"
vector 331 WirelessA.Tclient71.wlan[0].mac rcvdPkFromLl:vector(packetBytes) ETV
attr interpolationmode none
attr source packetReceivedFromLower
attr title "packets received from lower layer, vector(packetBytes)"
vector 332 WirelessA.Tclient71.wlan[0].mac packetDropNotAddressedToUs:vector(packetBytes) ETV
attr interpolationmode none
attr source packetDropReasonIsNotAddressedToUs(packetDropped)
attr title "packet drop: not addressed to us, vector(packetBytes)"
vector 333 WirelessA.Tclient44.wlan[0].mac rcvdPkFromLl:vector(packetBytes) ETV
attr interpolationmode none
attr source packetReceivedFromLower
attr title "packets received from lower layer, vector(packetBytes)"
vector 334 WirelessA.Tclient44.wlan[0].mac packetDropNotAddressedToUs:vector(packetBytes) ETV
attr interpolationmode none
attr source packetDropReasonIsNotAddressedToUs(packetDropped)
attr title "packet drop: not addressed to us, vector(packetBytes)"
vector 335 WirelessA.Tclient31.wlan[0].mac rcvdPkFromLl:vector(packetBytes) ETV
attr interpolationmode none
attr source packetReceivedFromLower
attr title "packets received from lower layer, vector(packetBytes)"
vector 336 WirelessA.Tclient31.wlan[0].mac packetDropNotAddressedToUs:vector(packetBytes) ETV
attr interpolationmode none
attr source packetDropReasonIsNotAddressedToUs(packetDropped)
attr title "packet drop: not addressed to us, vector(packetBytes)"
vector 337 WirelessA.Tclient7.wlan[0].mac rcvdPkFromLl:vector(packetBytes) ETV
attr interpolationmode none
attr source packetReceivedFromLower
attr title "packets received from lower layer, vector(packetBytes)"
vector 338 WirelessA.Tclient7.wlan[0].mac packetDropNotAddressedToUs:vector(packetBytes) ETV
attr interpolationmode none
attr source packetDropReasonIsNotAddressedToUs(packetDropped)
attr title "packet drop: not addressed to us, vector(packetBytes)"
vector 339 WirelessA.Tclient81.wlan[0].mac rcvdPkFromLl:vector(packetBytes) ETV
attr interpolationmode none
attr source packetReceivedFromLower
attr title "packets received from lower layer, vector(packetBytes)"
vector 340 WirelessA.Tclient81.wlan[0].mac packetDropNotAddressedToUs:vector(packetBytes) ETV
attr interpolationmode none
attr source packetDropReasonIsNotAddressedToUs(packetDropped)
attr title "packet drop: not addressed to us, vector(packetBytes)"
vector 341 WirelessA.Tclient4.wlan[0].mac rcvdPkFromLl:vector(packetBytes) ETV
attr interpolationmode none
attr source packetReceivedFromLower
attr title "packets received from lower layer, vector(packetBytes)"
vector 342 WirelessA.Tclient4.wlan[0].mac packetDropNotAddressedToUs:vector(packetBytes) ETV
attr interpolationmode none
attr source packetDropReasonIsNotAddressedToUs(packetDropped)
attr title "packet drop: not addressed to us, vector(packetBytes)"
vector 343 WirelessA.Tclient8.wlan[0].mac rcvdPkFromLl:vector(packetBytes) ETV
attr interpolationmode none
attr source packetReceivedFromLower
attr title "packets received from lower layer, vector(packetBytes)"
vector 344 WirelessA.Tclient8.wlan[0].mac packetDropNotAddressedToUs:vector(packetBytes) ETV
attr interpolationmode none
attr source packetDropReasonIsNotAddressedToUs(packetDropped)
attr title "packet drop: not addressed to us, vector(packetBytes)"
vector 345 WirelessA.Tclient29.wlan[0].mac rcvdPkFromLl:vector(packetBytes) ETV
attr interpolationmode none
attr source packetReceivedFromLower
attr title "packets received from lower layer, vector(packetBytes)"
vector 346 WirelessA.Tclient29.wlan[0].mac packetDropNotAddressedToUs:vector(packetBytes) ETV
attr interpolationmode none
attr source packetDropReasonIsNotAddressedToUs(packetDropped)
attr title "packet drop: not addressed to us, vector(packetBytes)"
vector 347 WirelessA.Tclient9.wlan[0].mac rcvdPkFromLl:vector(packetBytes) ETV
attr interpolationmode none
attr source packetReceivedFromLower
attr title "packets received from lower layer, vector(packetBytes)"
vector 348 WirelessA.Tclient9.wlan[0].mac packetDropNotAddressedToUs:vector(packetBytes) ETV
attr interpolationmode none
attr source packetDropReasonIsNotAddressedToUs(packetDropped)
attr title "packet drop: not addressed to us, vector(packetBytes)"
vector 349 WirelessA.Tclient24.wlan[0].mac rcvdPkFromLl:vector(packetBytes) ETV
attr interpolationmode none
attr source packetReceivedFromLower
attr title "packets received from lower layer, vector(packetBytes)"
vector 350 WirelessA.Tclient24.wlan[0].mac packetDropNotAddressedToUs:vector(packetBytes) ETV
attr interpolationmode none
attr source packetDropReasonIsNotAddressedToUs(packetDropped)
attr title "packet drop: not addressed to us, vector(packetBytes)"
vector 351 WirelessA.Tclient27.wlan[0].mac rcvdPkFromLl:vector(packetBytes) ETV
attr interpolationmode none
attr source packetReceivedFromLower
attr title "packets received from lower layer, vector(packetBytes)"
vector 352 WirelessA.Tclient27.wlan[0].mac packetDropNotAddressedToUs:vector(packetBytes) ETV
attr interpolationmode none
attr source packetDropReasonIsNotAddressedToUs(packetDropped)
attr title "packet drop: not addressed to us, vector(packetBytes)"
vector 353 WirelessA.Tclient45.wlan[0].mac rcvdPkFromLl:vector(packetBytes) ETV
attr interpolationmode none
attr source packetReceivedFromLower
attr title "packets received from lower layer, vector(packetBytes)"
vector 354 WirelessA.Tclient45.wlan[0].mac packetDropNotAddressedToUs:vector(packetBytes) ETV
attr interpolationmode none
attr source packetDropReasonIsNotAddressedToUs(packetDropped)
attr title "packet drop: not addressed to us, vector(packetBytes)"
vector 355 WirelessA.Tclient6.wlan[0].mac rcvdPkFromLl:vector(packetBytes) ETV
attr interpolationmode none
attr source packetReceivedFromLower
attr title "packets received from lower layer, vector(packetBytes)"
vector 356 WirelessA.Tclient6.wlan[0].mac packetDropNotAddressedToUs:vector(packetBytes) ETV
attr interpolationmode none
attr source packetDropReasonIsNotAddressedToUs(packetDropped)
attr title "packet drop: not addressed to us, vector(packetBytes)"
vector 357 WirelessA.Tclient35.wlan[0].mac rcvdPkFromLl:vector(packetBytes) ETV
attr interpolationmode none
attr source packetReceivedFromLower
attr title "packets received from lower layer, vector(packetBytes)"
vector 358 WirelessA.Tclient35.wlan[0].mac packetDropNotAddressedToUs:vector(packetBytes) ETV
attr interpolationmode none
attr source packetDropReasonIsNotAddressedToUs(packetDropped)
attr title "packet drop: not addressed to us, vector(packetBytes)"
vector 359 WirelessA.Tclient78.wlan[0].mac rcvdPkFromLl:vector(packetBytes) ETV
attr interpolationmode none
attr source packetReceivedFromLower
attr title "packets received from lower layer, vector(packetBytes)"
vector 360 WirelessA.Tclient78.wlan[0].mac packetDropNotAddressedToUs:vector(packetBytes) ETV
attr interpolationmode none
attr source packetDropReasonIsNotAddressedToUs(packetDropped)
attr title "packet drop: not addressed to us, vector(packetBytes)"
vector 361 WirelessA.Tclient5.wlan[0].mac rcvdPkFromLl:vector(packetBytes) ETV
attr interpolationmode none
attr source packetReceivedFromLower
attr title "packets received from lower layer, vector(packetBytes)"
vector 362 WirelessA.Tclient5.wlan[0].mac packetDropNotAddressedToUs:vector(packetBytes) ETV
attr interpolationmode none
attr source packetDropReasonIsNotAddressedToUs(packetDropped)
attr title "packet drop: not addressed to us, vector(packetBytes)"
vector 363 WirelessA.Tclient91.wlan[0].mac rcvdPkFromLl:vector(packetBytes) ETV
attr interpolationmode none
attr source packetReceivedFromLower
attr title "packets received from lower layer, vector(packetBytes)"
vector 364 WirelessA.Tclient91.wlan[0].mac packetDropNotAddressedToUs:vector(packetBytes) ETV
attr interpolationmode none
attr source packetDropReasonIsNotAddressedToUs(packetDropped)
attr title "packet drop: not addressed to us, vector(packetBytes)"
vector 365 WirelessA.Tclient76.wlan[0].mac rcvdPkFromLl:vector(packetBytes) ETV
attr interpolationmode none
attr source packetReceivedFromLower
attr title "packets received from lower layer, vector(packetBytes)"
vector 366 WirelessA.Tclient76.wlan[0].mac packetDropNotAddressedToUs:vector(packetBytes) ETV
attr interpolationmode none
attr source packetDropReasonIsNotAddressedToUs(packetDropped)
attr title "packet drop: not addressed to us, vector(packetBytes)"
vector 367 WirelessA.Tclient36.wlan[0].mac rcvdPkFromLl:vector(packetBytes) ETV
attr interpolationmode none
attr source packetReceivedFromLower
attr title "packets received from lower layer, vector(packetBytes)"
vector 368 WirelessA.Tclient36.wlan[0].mac packetDropNotAddressedToUs:vector(packetBytes) ETV
attr interpolationmode none
attr source packetDropReasonIsNotAddressedToUs(packetDropped)
attr title "packet drop: not addressed to us, vector(packetBytes)"
vector 369 WirelessA.Tclient3.wlan[0].mac rcvdPkFromLl:vector(packetBytes) ETV
attr interpolationmode none
attr source packetReceivedFromLower
attr title "packets received from lower layer, vector(packetBytes)"
vector 370 WirelessA.Tclient3.wlan[0].mac packetDropNotAddressedToUs:vector(packetBytes) ETV
attr interpolationmode none
attr source packetDropReasonIsNotAddressedToUs(packetDropped)
attr title "packet drop: not addressed to us, vector(packetBytes)"
vector 371 WirelessA.Tclient1.wlan[0].mac rcvdPkFromLl:vector(packetBytes) ETV
attr interpolationmode none
attr source packetReceivedFromLower
attr title "packets received from lower layer, vector(packetBytes)"
vector 372 WirelessA.Tclient1.wlan[0].mac packetDropNotAddressedToUs:vector(packetBytes) ETV
attr interpolationmode none
attr source packetDropReasonIsNotAddressedToUs(packetDropped)
attr title "packet drop: not addressed to us, vector(packetBytes)"
vector 373 WirelessA.Tclient77.wlan[0].mac rcvdPkFromLl:vector(packetBytes) ETV
attr interpolationmode none
attr source packetReceivedFromLower
attr title "packets received from lower layer, vector(packetBytes)"
vector 374 WirelessA.Tclient77.wlan[0].mac packetDropNotAddressedToUs:vector(packetBytes) ETV
attr interpolationmode none
attr source packetDropReasonIsNotAddressedToUs(packetDropped)
attr title "packet drop: not addressed to us, vector(packetBytes)"
vector 375 WirelessA.Tclient11.wlan[0].mac rcvdPkFromLl:vector(packetBytes) ETV
attr interpolationmode none
attr source packetReceivedFromLower
attr title "packets received from lower layer, vector(packetBytes)"
vector 376 WirelessA.Tclient11.wlan[0].mac packetDropNotAddressedToUs:vector(packetBytes) ETV
attr interpolationmode none
attr source packetDropReasonIsNotAddressedToUs(packetDropped)
attr title "packet drop: not addressed to us, vector(packetBytes)"
vector 377 WirelessA.Tclient68.wlan[0].mac rcvdPkFromLl:vector(packetBytes) ETV
attr interpolationmode none
attr source packetReceivedFromLower
attr title "packets received from lower layer, vector(packetBytes)"
vector 378 WirelessA.Tclient68.wlan[0].mac packetDropNotAddressedToUs:vector(packetBytes) ETV
attr interpolationmode none
attr source packetDropReasonIsNotAddressedToUs(packetDropped)
attr title "packet drop: not addressed to us, vector(packetBytes)"
vector 379 WirelessA.Tclient73.wlan[0].mac rcvdPkFromLl:vector(packetBytes) ETV
attr interpolationmode none
attr source packetReceivedFromLower
attr title "packets received from lower layer, vector(packetBytes)"
vector 380 WirelessA.Tclient73.wlan[0].mac packetDropNotAddressedToUs:vector(packetBytes) ETV
attr interpolationmode none
attr source packetDropReasonIsNotAddressedToUs(packetDropped)
attr title "packet drop: not addressed to us, vector(packetBytes)"
vector 381 WirelessA.Tclient93.wlan[0].mac rcvdPkFromLl:vector(packetBytes) ETV
attr interpolationmode none
attr source packetReceivedFromLower
attr title "packets received from lower layer, vector(packetBytes)"
vector 382 WirelessA.Tclient93.wlan[0].mac packetDropNotAddressedToUs:vector(packetBytes) ETV
attr interpolationmode none
attr source packetDropReasonIsNotAddressedToUs(packetDropped)
attr title "packet drop: not addressed to us, vector(packetBytes)"
vector 383 WirelessA.Tclient10.wlan[0].mac rcvdPkFromLl:vector(packetBytes) ETV
attr interpolationmode none
attr source packetReceivedFromLower
attr title "packets received from lower layer, vector(packetBytes)"
vector 384 WirelessA.Tclient10.wlan[0].mac packetDropNotAddressedToUs:vector(packetBytes) ETV
attr interpolationmode none
attr source packetDropReasonIsNotAddressedToUs(packetDropped)
attr title "packet drop: not addressed to us, vector(packetBytes)"
vector 385 WirelessA.Tclient39.wlan[0].mac rcvdPkFromLl:vector(packetBytes) ETV
attr interpolationmode none
attr source packetReceivedFromLower
attr title "packets received from lower layer, vector(packetBytes)"
vector 386 WirelessA.Tclient39.wlan[0].mac packetDropNotAddressedToUs:vector(packetBytes) ETV
attr interpolationmode none
attr source packetDropReasonIsNotAddressedToUs(packetDropped)
attr title "packet drop: not addressed to us, vector(packetBytes)"
vector 387 WirelessA.Tclient125.wlan[0].mac rcvdPkFromLl:vector(packetBytes) ETV
attr interpolationmode none
attr source packetReceivedFromLower
attr title "packets received from lower layer, vector(packetBytes)"
vector 388 WirelessA.Tclient125.wlan[0].mac packetDropNotAddressedToUs:vector(packetBytes) ETV
attr interpolationmode none
attr source packetDropReasonIsNotAddressedToUs(packetDropped)
attr title "packet drop: not addressed to us, vector(packetBytes)"
vector 389 WirelessA.Tclient.wlan[0].mac rcvdPkFromLl:vector(packetBytes) ETV
attr interpolationmode none
attr source packetReceivedFromLower
attr title "packets received from lower layer, vector(packetBytes)"
vector 390 WirelessA.Tclient.wlan[0].mac packetDropNotAddressedToUs:vector(packetBytes) ETV
attr interpolationmode none
attr source packetDropReasonIsNotAddressedToUs(packetDropped)
attr title "packet drop: not addressed to us, vector(packetBytes)"
vector 391 WirelessA.Tclient85.wlan[0].mac rcvdPkFromLl:vector(packetBytes) ETV
attr interpolationmode none
attr source packetReceivedFromLower
attr title "packets received from lower layer, vector(packetBytes)"
vector 392 WirelessA.Tclient85.wlan[0].mac packetDropNotAddressedToUs:vector(packetBytes) ETV
attr interpolationmode none
attr source packetDropReasonIsNotAddressedToUs(packetDropped)
attr title "packet drop: not addressed to us, vector(packetBytes)"
vector 393 WirelessA.Tclient62.wlan[0].mac rcvdPkFromLl:vector(packetBytes) ETV
attr interpolationmode none
attr source packetReceivedFromLower
attr title "packets received from lower layer, vector(packetBytes)"
vector 394 WirelessA.Tclient62.wlan[0].mac packetDropNotAddressedToUs:vector(packetBytes) ETV
attr interpolationmode none
attr source packetDropReasonIsNotAddressedToUs(packetDropped)
attr title "packet drop: not addressed to us, vector(packetBytes)"
vector 395 WirelessA.Tclient139.wlan[0].mac rcvdPkFromLl:vector(packetBytes) ETV
attr interpolationmode none
attr source packetReceivedFromLower
attr title "packets received from lower layer, vector(packetBytes)"
vector 396 WirelessA.Tclient139.wlan[0].mac packetDropNotAddressedToUs:vector(packetBytes) ETV
attr interpolationmode none
attr source packetDropReasonIsNotAddressedToUs(packetDropped)
attr title "packet drop: not addressed to us, vector(packetBytes)"
vector 397 WirelessA.Tclient83.wlan[0].mac rcvdPkFromLl:vector(packetBytes) ETV
attr interpolationmode none
attr source packetReceivedFromLower
attr title "packets received from lower layer, vector(packetBytes)"
vector 398 WirelessA.Tclient83.wlan[0].mac packetDropNotAddressedToUs:vector(packetBytes) ETV
attr interpolationmode none
attr source packetDropReasonIsNotAddressedToUs(packetDropped)
attr title "packet drop: not addressed to us, vector(packetBytes)"
vector 399 WirelessA.Tclient79.wlan[0].mac rcvdPkFromLl:vector(packetBytes) ETV
attr interpolationmode none
attr source packetReceivedFromLower
attr title "packets received from lower layer, vector(packetBytes)"
vector 400 WirelessA.Tclient79.wlan[0].mac packetDropNotAddressedToUs:vector(packetBytes) ETV
attr interpolationmode none
attr source packetDropReasonIsNotAddressedToUs(packetDropped)
attr title "packet drop: not addressed to us, vector(packetBytes)"
vector 401 WirelessA.Tclient92.wlan[0].mac rcvdPkFromLl:vector(packetBytes) ETV
attr interpolationmode none
attr source packetReceivedFromLower
attr title "packets received from lower layer, vector(packetBytes)"
vector 402 WirelessA.Tclient92.wlan[0].mac packetDropNotAddressedToUs:vector(packetBytes) ETV
attr interpolationmode none
attr source packetDropReasonIsNotAddressedToUs(packetDropped)
attr title "packet drop: not addressed to us, vector(packetBytes)"
vector 403 WirelessA.Tclient148.wlan[0].mac rcvdPkFromLl:vector(packetBytes) ETV
attr interpolationmode none
attr source packetReceivedFromLower
attr title "packets received from lower layer, vector(packetBytes)"
vector 404 WirelessA.Tclient148.wlan[0].mac packetDropNotAddressedToUs:vector(packetBytes) ETV
attr interpolationmode none
attr source packetDropReasonIsNotAddressedToUs(packetDropped)
attr title "packet drop: not addressed to us, vector(packetBytes)"
vector 405 WirelessA.Tclient37.wlan[0].mac rcvdPkFromLl:vector(packetBytes) ETV
attr interpolationmode none
attr source packetReceivedFromLower
attr title "packets received from lower layer, vector(packetBytes)"
vector 406 WirelessA.Tclient37.wlan[0].mac packetDropNotAddressedToUs:vector(packetBytes) ETV
attr interpolationmode none
attr source packetDropReasonIsNotAddressedToUs(packetDropped)
attr title "packet drop: not addressed to us, vector(packetBytes)"
vector 407 WirelessA.Tclient33.wlan[0].mac rcvdPkFromLl:vector(packetBytes) ETV
attr interpolationmode none
attr source packetReceivedFromLower
attr title "packets received from lower layer, vector(packetBytes)"
vector 408 WirelessA.Tclient33.wlan[0].mac packetDropNotAddressedToUs:vector(packetBytes) ETV
attr interpolationmode none
attr source packetDropReasonIsNotAddressedToUs(packetDropped)
attr title "packet drop: not addressed to us, vector(packetBytes)"
vector 409 WirelessA.Tclient80.wlan[0].mac rcvdPkFromLl:vector(packetBytes) ETV
attr interpolationmode none
attr source packetReceivedFromLower
attr title "packets received from lower layer, vector(packetBytes)"
vector 410 WirelessA.Tclient80.wlan[0].mac packetDropNotAddressedToUs:vector(packetBytes) ETV
attr interpolationmode none
attr source packetDropReasonIsNotAddressedToUs(packetDropped)
attr title "packet drop: not addressed to us, vector(packetBytes)"
[...]
1130	3315439 29 45233 45233 1.000994429253 1.000994429253 1 97 97 97 9409
1131	3315468 31 45965 45965 1.037056507237 1.037056507237 1 1028 1028 1028 1056784
1132	3315499 31 45967 45967 1.037056507237 1.037056507237 1 1008 1008 1008 1016064
1133	3315530 28 45967 45967 1.037056507237 1.037056507237 1 1 1 1 1
1134	3315558 31 45968 45968 1.037056507237 1.037056507237 1 1000 1000 1000 1000000
1135	3315589 340 45968 79727 0.1 2 20 0 80000 80000 6400000000
1136	3315929 41 45968 45968 1.037056507237 1.037056507237 1 0.008510449132 0.008510449132 0.008510449132 7.242774442836e-05
1137	3315970 29 45968 45968 1.037056507237 1.037056507237 1 98 98 98 9604
1138	3315999 31 46260 46260 1.045558844568 1.045558844568 1 1028 1028 1028 1056784
1139	3316030 31 46262 46262 1.045558844568 1.045558844568 1 1008 1008 1008 1016064
1140	3316061 28 46262 46262 1.045558844568 1.045558844568 1 1 1 1 1
1141	3316089 31 46263 46263 1.045558844568 1.045558844568 1 1000 1000 1000 1000000
1142	3316120 340 46263 79727 0.1 2 20 0 80000 80000 6400000000
1143	3316460 41 46263 46263 1.045558844568 1.045558844568 1 0.009273884569 0.009273884569 0.009273884569 8.6004934999136e-05
1144	3316501 29 46263 46263 1.045558844568 1.045558844568 1 99 99 99 9801
1145	3316530 62 46755 75734 1.063164643142 1.905594155143 2 1028 1028 2056 2113568
1146	3316592 62 46757 75736 1.063164643142 1.905594155143 2 1008 1008 2016 2032128
1147	3316654 56 46757 75736 1.063164643142 1.905594155143 2 1 2 3 5
1148	3316710 62 46758 75737 1.063164643142 1.905594155143 2 1000 1000 2000 2000000
1149	3316772 344 46758 79727 0.1 2 20 0 80000 160000 12800000000
1150	3317116 82 46758 75737 1.063164643142 1.905594155143 2 0.008509502116 0.009901613101 0.018411115217 0.0001704535682641
1151	3317198 60 46758 75737 1.063164643142 1.905594155143 2 100 163 263 36569
1152	3317258 62 47138 59139 1.072381955396 1.410494424612 2 1028 1028 2056 2113568
1153	3317320 62 47140 59141 1.072381955396 1.410494424612 2 1008 1008 2016 2032128
1154	3317382 56 47140 59141 1.072381955396 1.410494424612 2 1 2 3 5
1155	3317438 62 47141 59142 1.072381955396 1.410494424612 2 1000 1000 2000 2000000
1156	3317500 344 47141 79727 0.1 2 20 0 80000 160000 12800000000
1157	3317844 82 47141 59142 1.072381955396 1.410494424612 2 0.008507774268 0.018351152227 0.026858926495 0.00040914701105377
1158	3317926 60 47141 59142 1.072381955396 1.410494424612 2 101 127 228 26330
1159	3317986 31 47763 47763 1.086109400946 1.086109400946 1 1028 1028 1028 1056784
1160	3318017 31 47765 47765 1.086109400946 1.086109400946 1 1008 1008 1008 1016064
1161	3318048 28 47765 47765 1.086109400946 1.086109400946 1 1 1 1 1
1162	3318076 31 47766 47766 1.086109400946 1.086109400946 1 1000 1000 1000 1000000
1163	3318107 340 47766 79727 0.1 2 20 0 80000 80000 6400000000
1164	3318447 41 47766 47766 1.086109400946 1.086109400946 1 0.008509675269 0.008509675269 0.008509675269 7.241457318383e-05
1165	3318488 30 47766 47766 1.086109400946 1.086109400946 1 102 102 102 10404
1166	3318518 31 49419 49419 1.120122537864 1.120122537864 1 1028 1028 1028 1056784
1167	3318549 31 49421 49421 1.120122537864 1.120122537864 1 1008 1008 1008 1016064
1168	3318580 28 49421 49421 1.120122537864 1.120122537864 1 1 1 1 1
1169	3318608 31 49422 49422 1.120122537864 1.120122537864 1 1000 1000 1000 1000000
1170	3318639 340 49422 79727 0.1 2 20 0 80000 80000 6400000000
1171	3318979 41 49422 49422 1.120122537864 1.120122537864 1 0.030138644422 0.030138644422 0.030138644422 0.00090833788759575
1172	3319020 30 49422 49422 1.120122537864 1.120122537864 1 106 106 106 11236
1173	3319050 31 50356 50356 1.137131394887 1.137131394887 1 1028 1028 1028 1056784
1174	3319081 31 50358 50358 1.137131394887 1.137131394887 1 1008 1008 1008 1016064
1175	3319112 28 50358 50358 1.137131394887 1.137131394887 1 1 1 1 1
1176	3319140 31 50359 50359 1.137131394887 1.137131394887 1 1000 1000 1000 1000000
1177	3319171 340 50359 79727 0.1 2 20 0 80000 80000 6400000000
1178	3319511 41 50359 50359 1.137131394887 1.137131394887 1 0.011119183847 0.011119183847 0.011119183847 0.00012363624942339
1179	3319552 30 50359 50359 1.137131394887 1.137131394887 1 108 108 108 11664
1180	3319582 31 51845 51845 1.166984574102 1.166984574102 1 1028 1028 1028 1056784
1181	3319613 31 51847 51847 1.166984574102 1.166984574102 1 1008 1008 1008 1016064
1182	3319644 28 51847 51847 1.166984574102 1.166984574102 1 1 1 1 1
1183	3319672 31 51848 51848 1.166984574102 1.166984574102 1 1000 1000 1000 1000000
1184	3319703 340 51848 79727 0.1 2 20 0 80000 80000 6400000000
1185	3320043 41 51848 51848 1.166984574102 1.166984574102 1 0.017671478131 0.017671478131 0.017671478131 0.00031228113933441
1186	3320084 30 51848 51848 1.166984574102 1.166984574102 1 111 111 111 12321
1187	3320114 344 53261 79727 0.1 2 20 0 80000 160000 12800000000
1188	3320458 61 53918 73094 1.206118031614 1.81391089544 2 1028 1028 2056 2113568
1189	3320519 61 53920 73096 1.206118031614 1.81391089544 2 1008 1008 2016 2032128
1190	3320580 55 53920 73096 1.206118031614 1.81391089544 2 1 2 3 5
1191	3320635 61 53921 73097 1.206118031614 1.81391089544 2 1000 1000 2000 2000000
1192	3320696 344 53921 79727 0.1 2 20 0 80000 160000 12800000000
1193	3321040 81 53921 73097 1.206118031614 1.81391089544 2 0.008512768926 0.008512768926 0.017025537852 0.00014493446957494
1194	3321121 59 53921 73097 1.206118031614 1.81391089544 2 115 157 272 37874
1195	3321180 31 55078 55078 1.231627970418 1.231627970418 1 1028 1028 1028 1056784
1196	3321211 31 55080 55080 1.231627970418 1.231627970418 1 1008 1008 1008 1016064
1197	3321242 28 55080 55080 1.231627970418 1.231627970418 1 1 1 1 1
1198	3321270 31 55081 55081 1.231627970418 1.231627970418 1 1000 1000 1000 1000000
1199	3321301 340 55081 79727 0.1 2 20 0 80000 80000 6400000000
1200	3321641 41 55081 55081 1.231627970418 1.231627970418 1 0.009530531413 0.009530531413 0.009530531413 9.083102901418e-05
1201	3321682 30 55081 55081 1.231627970418 1.231627970418 1 118 118 118 13924
1202	3321712 31 56000 56000 1.277491216122 1.277491216122 1 1028 1028 1028 1056784
1203	3321743 31 56002 56002 1.277491216122 1.277491216122 1 1008 1008 1008 1016064
1204	3321774 28 56002 56002 1.277491216122 1.277491216122 1 1 1 1 1
1205	3321802 31 56003 56003 1.277491216122 1.277491216122 1 1000 1000 1000 1000000
1206	3321833 340 56003 79727 0.1 2 20 0 80000 80000 6400000000
1207	3322173 41 56003 56003 1.277491216122 1.277491216122 1 0.009661772058 0.009661772058 0.009661772058 9.334983930075e-05
1208	3322214 30 56003 56003 1.277491216122 1.277491216122 1 120 120 120 14400
1209	3322244 62 56741 75153 1.322534887745 1.897086563071 2 1028 1028 2056 2113568
1210	3322306 62 56743 75155 1.322534887745 1.897086563071 2 1008 1008 2016 2032128
1211	3322368 56 56743 75155 1.322534887745 1.897086563071 2 1 2 3 5
1212	3322424 62 56744 75156 1.322534887745 1.897086563071 2 1000 1000 2000 2000000
1213	3322486 344 56744 79727 0.1 2 20 0 80000 160000 12800000000
1214	3322830 82 56744 75156 1.322534887745 1.897086563071 2 0.008505910044 0.008505910044 0.017011820088 0.00014470101135324
1215	3322912 60 56744 75156 1.322534887745 1.897086563071 2 122 162 284 41128
1216	3322972 31 57417 57417 1.332827736834 1.332827736834 1 1028 1028 1028 1056784
1217	3323003 31 57419 57419 1.332827736834 1.332827736834 1 1008 1008 1008 1016064
1218	3323034 28 57419 57419 1.332827736834 1.332827736834 1 1 1 1 1
1219	3323062 31 57420 57420 1.332827736834 1.332827736834 1 1000 1000 1000 1000000
1220	3323093 340 57420 79727 0.1 2 20 0 80000 80000 6400000000
1221	3323433 41 57420 57420 1.332827736834 1.332827736834 1 0.008509537902 0.008509537902 0.008509537902 7.2412235305575e-05
1222	3323474 30 57420 57420 1.332827736834 1.332827736834 1 123 123 123 15129
1223	3323504 31 57764 57764 1.341331100246 1.341331100246 1 1028 1028 1028 1056784
1224	3323535 31 57766 57766 1.341331100246 1.341331100246 1 1008 1008 1008 1016064
1225	3323566 28 57766 57766 1.341331100246 1.341331100246 1 1 1 1 1
1226	3323594 31 57767 57767 1.341331100246 1.341331100246 1 1000 1000 1000 1000000
1227	3323625 340 57767 79727 0.1 2 20 0 80000 80000 6400000000
1228	3323965 41 57767 57767 1.341331100246 1.341331100246 1 0.014954437786 0.014954437786 0.014954437786 0.00022363520949534
1229	3324006 30 57767 57767 1.341331100246 1.341331100246 1 124 124 124 15376
1230	3324036 31 59758 59758 1.419001055925 1.419001055925 1 1028 1028 1028 1056784
1231	3324067 31 59760 59760 1.419001055925 1.419001055925 1 1008 1008 1008 1016064
1232	3324098 28 59760 59760 1.419001055925 1.419001055925 1 1 1 1 1
1233	3324126 31 59761 59761 1.419001055925 1.419001055925 1 1000 1000 1000 1000000
1234	3324157 340 59761 79727 0.1 2 20 0 80000 80000 6400000000
1235	3324497 41 59761 59761 1.419001055925 1.419001055925 1 0.023265842951 0.023265842951 0.023265842951 0.0005412994482206
1236	3324538 30 59761 59761 1.419001055925 1.419001055925 1 128 128 128 16384
1237	3324568 62 60533 74745 1.458836925205 1.881005289076 2 1028 1028 2056 2113568
1238	3324630 62 60535 74747 1.458836925205 1.881005289076 2 1008 1008 2016 2032128
1239	3324692 56 60535 74747 1.458836925205 1.881005289076 2 1 2 3 5
1240	3324748 62 60536 74748 1.458836925205 1.881005289076 2 1000 1000 2000 2000000
1241	3324810 344 60536 79727 0.1 2 20 0 80000 160000 12800000000
1242	3325154 82 60536 74748 1.458836925205 1.881005289076 2 0.008507947593 0.008507947593 0.017015895186 0.00014477034449047
1243	3325236 60 60536 74748 1.458836925205 1.881005289076 2 130 161 291 42821
1244	3325296 62 62064 62984 1.484351168558 1.501359168558 2 1028 1028 2056 2113568
1245	3325358 62 62066 62986 1.484351168558 1.501359168558 2 1008 1008 2016 2032128
1246	3325420 56 62066 62986 1.484351168558 1.501359168558 2 1 2 3 5
1247	3325476 62 62067 62987 1.484351168558 1.501359168558 2 1000 1000 2000 2000000
1248	3325538 344 62067 79727 0.1 2 20 0 80000 160000 12800000000
1249	3325882 82 62067 62987 1.484351168558 1.501359168558 2 0.022375649907 0.036880406899 0.059256056806 0.0018608341217964
1250	3325964 60 62067 62987 1.484351168558 1.501359168558 2 133 135 268 35914
1251	3326024 31 64468 64468 1.526873113414 1.526873113414 1 1028 1028 1028 1056784
1252	3326055 31 64470 64470 1.526873113414 1.526873113414 1 1008 1008 1008 1016064
1253	3326086 28 64470 64470 1.526873113414 1.526873113414 1 1 1 1 1
1254	3326114 31 64471 64471 1.526873113414 1.526873113414 1 1000 1000 1000 1000000
1255	3326145 340 64471 79727 0.1 2 20 0 80000 80000 6400000000
1256	3326485 41 64471 64471 1.526873113414 1.526873113414 1 0.036105063554 0.036105063554 0.036105063554 0.0013035756142384
1257	3326526 30 64471 64471 1.526873113414 1.526873113414 1 138 138 138 19044
1258	3326556 29 66951 66951 1.5778925517 1.5778925517 1 1028 1028 1028 1056784
1259	3326585 29 66953 66953 1.5778925517 1.5778925517 1 1008 1008 1008 1016064
1260	3326614 26 66953 66953 1.5778925517 1.5778925517 1 1 1 1 1
1261	3326640 29 66954 66954 1.5778925517 1.5778925517 1 1000 1000 1000 1000000
1262	3326669 340 66954 79727 0.1 2 20 0 80000 80000 6400000000
1263	3327009 39 66954 66954 1.5778925517 1.5778925517 1 0.036780517475 0.036780517475 0.036780517475 0.0013528064657288
1264	3327048 28 66954 66954 1.5778925517 1.5778925517 1 144 144 144 20736
1265	3327076 62 67356 79296 1.586395735755 1.989203426211 2 1028 1028 2056 2113568
1266	3327138 62 67358 79298 1.586395735755 1.989203426211 2 1008 1008 2016 2032128
1267	3327200 56 67358 79298 1.586395735755 1.989203426211 2 1 2 3 5
1268	3327256 62 67359 79299 1.586395735755 1.989203426211 2 1000 1000 2000 2000000
1269	3327318 344 67359 79727 0.1 2 20 0 80000 160000 12800000000
1270	3327662 82 67359 79299 1.586395735755 1.989203426211 2 0.020958792136 0.027590634833 0.048549426969 0.001200514098288
1271	3327744 60 67359 79299 1.586395735755 1.989203426211 2 145 171 316 50266
1272	3327804 344 68402 79727 0.1 2 20 0 80000 160000 12800000000
1273	3328148 31 68889 68889 1.675018431859 1.675018431859 1 1028 1028 1028 1056784
1274	3328179 31 68891 68891 1.675018431859 1.675018431859 1 1008 1008 1008 1016064
1275	3328210 28 68891 68891 1.675018431859 1.675018431859 1 1 1 1 1
1276	3328238 31 68892 68892 1.675018431859 1.675018431859 1 1000 1000 1000 1000000
1277	3328269 340 68892 79727 0.1 2 20 0 80000 80000 6400000000
1278	3328609 41 68892 68892 1.675018431859 1.675018431859 1 0.008510955122 0.008510955122 0.008510955122 7.2436357088698e-05
1279	3328650 30 68892 68892 1.675018431859 1.675018431859 1 148 148 148 21904
1280	3328680 62 69718 78979 1.704891420022 1.980701395254 2 1028 1028 2056 2113568
1281	3328742 62 69720 78981 1.704891420022 1.980701395254 2 1008 1008 2016 2032128
1282	3328804 56 69720 78981 1.704891420022 1.980701395254 2 1 2 3 5
1283	3328860 62 69721 78982 1.704891420022 1.980701395254 2 1000 1000 2000 2000000
1284	3328922 344 69721 79727 0.1 2 20 0 80000 160000 12800000000
1285	3329266 82 69721 78982 1.704891420022 1.980701395254 2 0.008925405855 0.020525356003 0.029450761858 0.00050095310872636
1286	3329348 60 69721 78982 1.704891420022 1.980701395254 2 150 170 320 51400
1287	3329408 30 70483 70483 1.75905289946 1.75905289946 1 1028 1028 1028 1056784
1288	3329438 30 70485 70485 1.75905289946 1.75905289946 1 1008 1008 1008 1016064
1289	3329468 27 70485 70485 1.75905289946 1.75905289946 1 1 1 1 1
1290	3329495 30 70486 70486 1.75905289946 1.75905289946 1 1000 1000 1000 1000000
1291	3329525 340 70486 79727 0.1 2 20 0 80000 80000 6400000000
1292	3329865 40 70486 70486 1.75905289946 1.75905289946 1 0.008512999071 0.008512999071 0.008512999071 7.2471153182847e-05
1293	3329905 29 70486 70486 1.75905289946 1.75905289946 1 151 151 151 22801
1294	3329934 31 70744 70744 1.767555123084 1.767555123084 1 1028 1028 1028 1056784
1295	3329965 31 70746 70746 1.767555123084 1.767555123084 1 1008 1008 1008 1016064
1296	3329996 28 70746 70746 1.767555123084 1.767555123084 1 1 1 1 1
1297	3330024 31 70747 70747 1.767555123084 1.767555123084 1 1000 1000 1000 1000000
1298	3330055 340 70747 79727 0.1 2 20 0 80000 80000 6400000000
1299	3330395 41 70747 70747 1.767555123084 1.767555123084 1 0.016204812812 0.016204812812 0.016204812812 0.00026259595827196
1300	3330436 30 70747 70747 1.767555123084 1.767555123084 1 152 152 152 23104
1301	3330466 31 71496 71496 1.786708652625 1.786708652625 1 1028 1028 1028 1056784
1302	3330497 31 71498 71498 1.786708652625 1.786708652625 1 1008 1008 1008 1016064
1303	3330528 28 71498 71498 1.786708652625 1.786708652625 1 1 1 1 1
1304	3330556 31 71499 71499 1.786708652625 1.786708652625 1 1000 1000 1000 1000000
1305	3330587 340 71499 79727 0.1 2 20 0 80000 80000 6400000000
1306	3330927 41 71499 71499 1.786708652625 1.786708652625 1 0.012928229269 0.012928229269 0.012928229269 0.00016713911203183
1307	3330968 30 71499 71499 1.786708652625 1.786708652625 1 154 154 154 23716
1308	3330998 31 71920 71920 1.796093938886 1.796093938886 1 1028 1028 1028 1056784
1309	3331029 31 71922 71922 1.796093938886 1.796093938886 1 1008 1008 1008 1016064
1310	3331060 28 71922 71922 1.796093938886 1.796093938886 1 1 1 1 1
1311	3331088 31 71923 71923 1.796093938886 1.796093938886 1 1000 1000 1000 1000000
1312	3331119 340 71923 79727 0.1 2 20 0 80000 80000 6400000000
1313	3331459 41 71923 71923 1.796093938886 1.796093938886 1 0.008505564415 0.008505564415 0.008505564415 7.2344626017714e-05
1314	3331500 30 71923 71923 1.796093938886 1.796093938886 1 155 155 155 24025
1315	3331530 31 72410 72410 1.804599301803 1.804599301803 1 1028 1028 1028 1056784
1316	3331561 31 72412 72412 1.804599301803 1.804599301803 1 1008 1008 1008 1016064
1317	3331592 28 72412 72412 1.804599301803 1.804599301803 1 1 1 1 1
1318	3331620 31 72413 72413 1.804599301803 1.804599301803 1 1000 1000 1000 1000000
1319	3331651 340 72413 79727 0.1 2 20 0 80000 80000 6400000000
1320	3331991 41 72413 72413 1.804599301803 1.804599301803 1 0.011260374998 0.011260374998 0.011260374998 0.00012679604509558
1321	3332032 30 72413 72413 1.804599301803 1.804599301803 1 156 156 156 24336
1322	3332062 29 74075 74075 1.8538010343 1.8538010343 1 1028 1028 1028 1056784
1323	3332091 29 74077 74077 1.8538010343 1.8538010343 1 1008 1008 1008 1016064
1324	3332120 26 74077 74077 1.8538010343 1.8538010343 1 1 1 1 1
1325	3332146 29 74078 74078 1.8538010343 1.8538010343 1 1000 1000 1000 1000000
1326	3332175 340 74078 79727 0.1 2 20 0 80000 80000 6400000000
1327	3332515 38 74078 74078 1.8538010343 1.8538010343 1 0.00875304994 0.00875304994 0.00875304994 7.6615883252134e-05
1328	3332553 28 74078 74078 1.8538010343 1.8538010343 1 159 159 159 25281
1329	3332581 31 74358 74358 1.862303421595 1.862303421595 1 1028 1028 1028 1056784
1330	3332612 31 74360 74360 1.862303421595 1.862303421595 1 1008 1008 1008 1016064
1331	3332643 28 74360 74360 1.862303421595 1.862303421595 1 1 1 1 1
1332	3332671 31 74361 74361 1.862303421595 1.862303421595 1 1000 1000 1000 1000000
1333	3332702 340 74361 79727 0.1 2 20 0 80000 80000 6400000000
1334	3333042 41 74361 74361 1.862303421595 1.862303421595 1 0.010555515764 0.010555515764 0.010555515764 0.00011141891304405
1335	3333083 30 74361 74361 1.862303421595 1.862303421595 1 160 160 160 25600
1336	3333113 30 77560 77560 1.95088278202 1.95088278202 1 1028 1028 1028 1056784
1337	3333143 30 77562 77562 1.95088278202 1.95088278202 1 1008 1008 1008 1016064
1338	3333173 27 77562 77562 1.95088278202 1.95088278202 1 1 1 1 1
1339	3333200 30 77563 77563 1.95088278202 1.95088278202 1 1000 1000 1000 1000000
1340	3333230 340 77563 79727 0.1 2 20 0 80000 80000 6400000000
1341	3333570 40 77563 77563 1.95088278202 1.95088278202 1 0.010031993274 0.010031993274 0.010031993274 0.00010064088904958
1342	3333610 29 77563 77563 1.95088278202 1.95088278202 1 167 167 167 27889
1343	3333639 336 79727 79727 0.1 2 20 0 0 0 0
1344	3333975 336 79727 79727 0.1 2 20 0 0 0 0
1345	3334311 336 79727 79727 0.1 2 20 0 0 0 0
1346	3334647 340 79727 79727 0.1 2 20 0 80000 80000 6400000000
1347	3334987 336 79727 79727 0.1 2 20 0 0 0 0
1348	3335323 336 79727 79727 0.1 2 20 0 0 0 0
1349	3335659 336 79727 79727 0.1 2 20 0 0 0 0
1350	3335995 340 79727 79727 0.1 2 20 0 80000 80000 6400000000
1351	3336335 336 79727 79727 0.1 2 20 0 0 0 0
1352	3336671 336 79727 79727 0.1 2 20 0 0 0 0
1353	3337007 336 79727 79727 0.1 2 20 0 0 0 0
1354	3337343 336 79727 79727 0.1 2 20 0 0 0 0
1355	3337679 336 79727 79727 0.1 2 20 0 0 0 0
1356	3338015 336 79727 79727 0.1 2 20 0 0 0 0
1357	3338351 336 79727 79727 0.1 2 20 0 0 0 0
1358	3338687 336 79727 79727 0.1 2 20 0 0 0 0
1359	3339023 336 79727 79727 0.1 2 20 0 0 0 0
1360	3339359 336 79727 79727 0.1 2 20 0 0 0 0
1361	3339695 336 79727 79727 0.1 2 20 0 0 0 0
1362	3340031 336 79727 79727 0.1 2 20 0 0 0 0
1363	3340367 336 79727 79727 0.1 2 20 0 0 0 0
1364	3340703 336 79727 79727 0.1 2 20 0 0 0 0
1365	3341039 336 79727 79727 0.1 2 20 0 0 0 0
1366	3341375 336 79727 79727 0.1 2 20 0 0 0 0
1367	3341711 336 79727 79727 0.1 2 20 0 0 0 0
1368	3342047 336 79727 79727 0.1 2 20 0 0 0 0
1369	3342383 336 79727 79727 0.1 2 20 0 0 0 0
1370	3342719 336 79727 79727 0.1 2 20 0 0 0 0
1371	3343055 336 79727 79727 0.1 2 20 0 0 0 0
1372	3343391 336 79727 79727 0.1 2 20 0 0 0 0
1373	3343727 336 79727 79727 0.1 2 20 0 0 0 0
1374	3344063 336 79727 79727 0.1 2 20 0 0 0 0
1375	3344399 336 79727 79727 0.1 2 20 0 0 0 0
1376	3344735 336 79727 79727 0.1 2 20 0 0 0 0
1377	3345071 336 79727 79727 0.1 2 20 0 0 0 0
1378	3345407 336 79727 79727 0.1 2 20 0 0 0 0
1379	3345743 336 79727 79727 0.1 2 20 0 0 0 0
1380	3346079 336 79727 79727 0.1 2 20 0 0 0 0
1381	3346415 336 79727 79727 0.1 2 20 0 0 0 0
1382	3346751 336 79727 79727 0.1 2 20 0 0 0 0
1383	3347087 336 79727 79727 0.1 2 20 0 0 0 0
1384	3347423 340 79727 79727 0.1 2 20 0 80000 80000 6400000000
1385	3347763 336 79727 79727 0.1 2 20 0 0 0 0
1386	3348099 336 79727 79727 0.1 2 20 0 0 0 0
1387	3348435 336 79727 79727 0.1 2 20 0 0 0 0
1388	3348771 336 79727 79727 0.1 2 20 0 0 0 0
1389	3349107 336 79727 79727 0.1 2 20 0 0 0 0
1390	3349443 336 79727 79727 0.1 2 20 0 0 0 0
1391	3349779 336 79727 79727 0.1 2 20 0 0 0 0

