version 2
run Wifi100-0-20200619-10:29:27-3234
attr configname Wifi100
attr datetime 20200619-10:29:27
attr experiment Wifi100
attr inifile omnetpp.ini
attr iterationvars ""
attr iterationvarsf ""
attr measurement ""
attr network Wifi2
attr processid 3234
attr repetition 0
attr replication #0
attr resultdir results
attr runnumber 0
attr seedset 0
param *.host*.ipv4.arp.typename "\"GlobalArp\""
param *.hostA.numApps 1
param *.hostA.app[0].typename "\"UdpBasicApp\""
param *.hostA.app[0].destAddresses "\"hostB hostC hostD host5 host6 host7 host8 host9 host10 host11 host12 host13 host14 host15 host16 host17 host18 host19 host20 host21 host22 host23 host24 host25 host26 host27 host28 host29 host30 host31 host32 host33 host34 host35 host36 host37 host38 host39 host40 host41 host42 host43 host44 host45 host46 host47 host48 host49 host50 host51 host52 host53 host54 host55 host56 host57 host58 host59 host60 host61 host62 host63 host64 host65 host66 host67 host68 host69 host70  host71 host72 host73 host74 host75 host76 host77 host78 host79 host80 host81 host82 host53 host84 host85 host86 host87 host88 host89 host90 host91 host92 host93 host94 host95 host96   \""
param *.hostA.app[0].destPort 1500
param *.hostA.app[0].messageLength 1000B
param *.hostA.app[0].sendInterval exponential(12ms)
param *.hostA.app[0].packetName "\"UDPData\""
param *.hostB*.numApps 1
param *.hostB*.app[0].typename "\"UdpSink\""
param *.hostB*.app[0].localPort 1500
param *.hostC*.numApps 1
param *.hostC*.app[0].typename "\"UdpSink\""
param *.hostC*.app[0].localPort 1500
param *.hostD*.numApps 1
param *.hostD*.app[0].typename "\"UdpSink\""
param *.hostD*.app[0].localPort 1500
param *.host5*.numApps 1
param *.host5*.app[0].typename "\"UdpSink\""
param *.host5*.app[0].localPort 1500
param *.host6*.numApps 1
param *.host6*.app[0].typename "\"UdpSink\""
param *.host6*.app[0].localPort 1500
param *.host7*.numApps 1
param *.host7*.app[0].typename "\"UdpSink\""
param *.host7*.app[0].localPort 1500
param *.host8*.numApps 1
param *.host8*.app[0].typename "\"UdpSink\""
param *.host8*.app[0].localPort 1500
param *.host9*.numApps 1
param *.host9*.app[0].typename "\"UdpSink\""
param *.host9*.app[0].localPort 1500
param *.host10*.numApps 1
param *.host10*.app[0].typename "\"UdpSink\""
param *.host10*.app[0].localPort 1500
param *.host11*.numApps 1
param *.host11*.app[0].typename "\"UdpSink\""
param *.host11*.app[0].localPort 1500
param *.host12*.numApps 1
param *.host12*.app[0].typename "\"UdpSink\""
param *.host12*.app[0].localPort 1500
param *.host13*.numApps 1
param *.host13*.app[0].typename "\"UdpSink\""
param *.host13*.app[0].localPort 1500
param *.host14*.numApps 1
param *.host14*.app[0].typename "\"UdpSink\""
param *.host14*.app[0].localPort 1500
param *.host15*.numApps 1
param *.host15*.app[0].typename "\"UdpSink\""
param *.host15*.app[0].localPort 1500
param *.host16*.numApps 1
param *.host16*.app[0].typename "\"UdpSink\""
param *.host16*.app[0].localPort 1500
param *.host17*.numApps 1
param *.host17*.app[0].typename "\"UdpSink\""
param *.host17*.app[0].localPort 1500
param *.host18*.numApps 1
param *.host18*.app[0].typename "\"UdpSink\""
param *.host18*.app[0].localPort 1500
param *.host19*.numApps 1
param *.host19*.app[0].typename "\"UdpSink\""
param *.host19*.app[0].localPort 1500
param *.host20*.numApps 1
param *.host20*.app[0].typename "\"UdpSink\""
param *.host20*.app[0].localPort 1500
param *.host21*.numApps 1
param *.host21*.app[0].typename "\"UdpSink\""
param *.host21*.app[0].localPort 1500
param *.host22*.numApps 1
param *.host22*.app[0].typename "\"UdpSink\""
param *.host22*.app[0].localPort 1500
param *.host23*.numApps 1
param *.host23*.app[0].typename "\"UdpSink\""
param *.host23*.app[0].localPort 1500
param *.host24*.numApps 1
param *.host24*.app[0].typename "\"UdpSink\""
param *.host24*.app[0].localPort 1500
param *.host25*.numApps 1
param *.host25*.app[0].typename "\"UdpSink\""
param *.host25*.app[0].localPort 1500
param *.host26*.numApps 1
param *.host26*.app[0].typename "\"UdpSink\""
param *.host26*.app[0].localPort 1500
param *.host27*.numApps 1
param *.host27*.app[0].typename "\"UdpSink\""
param *.host27*.app[0].localPort 1500
param *.host28*.numApps 1
param *.host28*.app[0].typename "\"UdpSink\""
param *.host28*.app[0].localPort 1500
param *.host29*.numApps 1
param *.host29*.app[0].typename "\"UdpSink\""
param *.host29*.app[0].localPort 1500
param *.host30*.numApps 1
param *.host30*.app[0].typename "\"UdpSink\""
param *.host30*.app[0].localPort 1500
param *.host31*.numApps 1
param *.host31*.app[0].typename "\"UdpSink\""
param *.host31*.app[0].localPort 1500
param *.host32*.numApps 1
param *.host32*.app[0].typename "\"UdpSink\""
param *.host32*.app[0].localPort 1500
param *.host33*.numApps 1
param *.host33*.app[0].typename "\"UdpSink\""
param *.host33*.app[0].localPort 1500
param *.host34*.numApps 1
param *.host34*.app[0].typename "\"UdpSink\""
param *.host34*.app[0].localPort 1500
param *.host35*.numApps 1
param *.host35*.app[0].typename "\"UdpSink\""
param *.host35*.app[0].localPort 1500
param *.host36*.numApps 1
param *.host36*.app[0].typename "\"UdpSink\""
param *.host36*.app[0].localPort 1500
param *.host37*.numApps 1
param *.host37*.app[0].typename "\"UdpSink\""
param *.host37*.app[0].localPort 1500
param *.host38*.numApps 1
param *.host38*.app[0].typename "\"UdpSink\""
param *.host38*.app[0].localPort 1500
param *.host39*.numApps 1
param *.host39*.app[0].typename "\"UdpSink\""
param *.host39*.app[0].localPort 1500
param *.host40*.numApps 1
param *.host40*.app[0].typename "\"UdpSink\""
param *.host40*.app[0].localPort 1500
param *.host41*.numApps 1
param *.host41*.app[0].typename "\"UdpSink\""
param *.host41*.app[0].localPort 1500
param *.host42*.numApps 1
param *.host42*.app[0].typename "\"UdpSink\""
param *.host42*.app[0].localPort 1500
param *.host43*.numApps 1
param *.host43*.app[0].typename "\"UdpSink\""
param *.host43*.app[0].localPort 1500
param *.host44*.numApps 1
param *.host44*.app[0].typename "\"UdpSink\""
param *.host44*.app[0].localPort 1500
param *.host45*.numApps 1
param *.host45*.app[0].typename "\"UdpSink\""
param *.host45*.app[0].localPort 1500
param *.host46*.numApps 1
param *.host46*.app[0].typename "\"UdpSink\""
param *.host46*.app[0].localPort 1500
param *.host47*.numApps 1
param *.host47*.app[0].typename "\"UdpSink\""
param *.host47*.app[0].localPort 1500
param *.host48*.numApps 1
param *.host48*.app[0].typename "\"UdpSink\""
param *.host48*.app[0].localPort 1500
param *.host49*.numApps 1
param *.host49*.app[0].typename "\"UdpSink\""
param *.host49*.app[0].localPort 1500
param *.host50*.numApps 1
param *.host50*.app[0].typename "\"UdpSink\""
param *.host50*.app[0].localPort 1500
param *.host51*.numApps 1
param *.host51*.app[0].typename "\"UdpSink\""
param *.host51*.app[0].localPort 1500
param *.host53*.numApps 1
param *.host53*.app[0].typename "\"UdpSink\""
param *.host53*.app[0].localPort 1500
param *.host54*.numApps 1
param *.host54*.app[0].typename "\"UdpSink\""
param *.host54*.app[0].localPort 1500
param *.host*.numApps 1
param *.host*.app[0].typename "\"UdpSink\""
param *.host*.app[0].localPort 1500
param *.host55*.numApps 1
param *.host55*.app[0].typename "\"UdpSink\""
param *.host55*.app[0].localPort 1500
param *.host56*.numApps 1
param *.host56*.app[0].typename "\"UdpSink\""
param *.host56*.app[0].localPort 1500
param *.host57*.numApps 1
param *.host57*.app[0].typename "\"UdpSink\""
param *.host57*.app[0].localPort 1500
param *.host58*.numApps 1
param *.host58*.app[0].typename "\"UdpSink\""
param *.host58*.app[0].localPort 1500
param *.host59*.numApps 1
param *.host59*.app[0].typename "\"UdpSink\""
param *.host59*.app[0].localPort 1500
param *.host60*.numApps 1
param *.host60*.app[0].typename "\"UdpSink\""
param *.host60*.app[0].localPort 1500
param *.host61*.numApps 1
param *.host61*.app[0].typename "\"UdpSink\""
param *.host61*.app[0].localPort 1500
param *.host62*.numApps 1
param *.host62*.app[0].typename "\"UdpSink\""
param *.host62*.app[0].localPort 1500
param *.host63*.numApps 1
param *.host63*.app[0].typename "\"UdpSink\""
param *.host63*.app[0].localPort 1500
param *.host64*.numApps 1
param *.host64*.app[0].typename "\"UdpSink\""
param *.host64*.app[0].localPort 1500
param *.host65*.numApps 1
param *.host65*.app[0].typename "\"UdpSink\""
param *.host65*.app[0].localPort 1500
param *.host66*.numApps 1
param *.host66*.app[0].typename "\"UdpSink\""
param *.host66*.app[0].localPort 1500
param *.host67*.numApps 1
param *.host67*.app[0].typename "\"UdpSink\""
param *.host67*.app[0].localPort 1500
param *.host68*.numApps 1
param *.host68*.app[0].typename "\"UdpSink\""
param *.host68*.app[0].localPort 1500
param *.host69*.numApps 1
param *.host69*.app[0].typename "\"UdpSink\""
param *.host69*.app[0].localPort 1500
param *.host70*.numApps 1
param *.host70*.app[0].typename "\"UdpSink\""
param *.host70*.app[0].localPort 1500
param *.host71*.numApps 1
param *.host71*.app[0].typename "\"UdpSink\""
param *.host71*.app[0].localPort 1500
param *.host72*.numApps 1
param *.host72*.app[0].typename "\"UdpSink\""
param *.host72*.app[0].localPort 1500
param *.host73*.numApps 1
param *.host73*.app[0].typename "\"UdpSink\""
param *.host73*.app[0].localPort 1500
param *.host74*.numApps 1
param *.host74*.app[0].typename "\"UdpSink\""
param *.host74*.app[0].localPort 1500
param *.host75*.numApps 1
param *.host75*.app[0].typename "\"UdpSink\""
param *.host75*.app[0].localPort 1500
param *.host76*.numApps 1
param *.host76*.app[0].typename "\"UdpSink\""
param *.host76*.app[0].localPort 1500
param *.host77*.numApps 1
param *.host77*.app[0].typename "\"UdpSink\""
param *.host77*.app[0].localPort 1500
param *.host78*.numApps 1
param *.host78*.app[0].typename "\"UdpSink\""
param *.host78*.app[0].localPort 1500
param *.host79*.numApps 1
param *.host79*.app[0].typename "\"UdpSink\""
param *.host79*.app[0].localPort 1500
param *.host80*.numApps 1
param *.host80*.app[0].typename "\"UdpSink\""
param *.host80*.app[0].localPort 1500
param *.host81*.numApps 1
param *.host81*.app[0].typename "\"UdpSink\""
param *.host81*.app[0].localPort 1500
param *.host82*.numApps 1
param *.host82*.app[0].typename "\"UdpSink\""
param *.host82*.app[0].localPort 1500
param *.host83*.numApps 1
param *.host83*.app[0].typename "\"UdpSink\""
param *.host83*.app[0].localPort 1500
param *.host84*.numApps 1
param *.host84*.app[0].typename "\"UdpSink\""
param *.host84*.app[0].localPort 1500
param *.host85*.numApps 1
param *.host85*.app[0].typename "\"UdpSink\""
param *.host85*.app[0].localPort 1500
param *.host86*.numApps 1
param *.host86*.app[0].typename "\"UdpSink\""
param *.host86*.app[0].localPort 1500
param *.host87*.numApps 1
param *.host87*.app[0].typename "\"UdpSink\""
param *.host87*.app[0].localPort 1500
param *.host88*.numApps 1
param *.host88*.app[0].typename "\"UdpSink\""
param *.host88*.app[0].localPort 1500
param *.host89*.numApps 1
param *.host89*.app[0].typename "\"UdpSink\""
param *.host89*.app[0].localPort 1500
param *.host90*.numApps 1
param *.host90*.app[0].typename "\"UdpSink\""
param *.host90*.app[0].localPort 1500
param *.host91*.numApps 1
param *.host91*.app[0].typename "\"UdpSink\""
param *.host91*.app[0].localPort 1500
param *.host92*.numApps 1
param *.host92*.app[0].typename "\"UdpSink\""
param *.host92*.app[0].localPort 1500
param *.host93*.numApps 1
param *.host93*.app[0].typename "\"UdpSink\""
param *.host93*.app[0].localPort 1500
param *.host94*.numApps 1
param *.host94*.app[0].typename "\"UdpSink\""
param *.host94*.app[0].localPort 1500
param *.host95*.numApps 1
param *.host95*.app[0].typename "\"UdpSink\""
param *.host95*.app[0].localPort 1500
param *.host96*.numApps 1
param *.host96*.app[0].typename "\"UdpSink\""
param *.host96*.app[0].localPort 1500
param *.hostA.wlan[0].radio.displayCommunicationRange true
param *.host*.wlan[0].typename "\"AckingWirelessInterface\""
param *.host*.wlan[0].mac.useAck false
param *.host*.wlan[0].mac.fullDuplex false
param *.host*.wlan[0].radio.transmitter.communicationRange 1000m
param *.host*.wlan[0].radio.receiver.ignoreInterference true
param *.host*.wlan[0].mac.headerLength 23B
param *.host*.**.bitrate 10Mbps
param *.visualizer.sceneVisualizer.descriptionFigure "\"title\""
param *.visualizer.mediumVisualizer.displaySignals true
param *.visualizer.physicalLinkVisualizer.displayLinks true
param *.visualizer.physicalLinkVisualizer.packetFilter "\"UDPData*\""

scalar Wifi2.radioMedium.propagation "Arrival computation count" 1586690
scalar Wifi2.radioMedium "transmission count" 16702
scalar Wifi2.radioMedium "signal send count" 1586690
scalar Wifi2.radioMedium "reception computation count" 1586690
scalar Wifi2.radioMedium "interference computation count" 4776868
scalar Wifi2.radioMedium "reception decision computation count" 1586690
scalar Wifi2.radioMedium "listening decision computation count" 1603488
scalar Wifi2.radioMedium "reception cache hit" 85.852596627053
attr unit %
scalar Wifi2.radioMedium "interference cache hit" 66.666666666667
attr unit %
scalar Wifi2.radioMedium "noise cache hit" 0
attr unit %
scalar Wifi2.radioMedium "snir cache hit" 50
attr unit %
scalar Wifi2.radioMedium "reception decision cache hit" 50
attr unit %
scalar Wifi2.radioMedium "reception result cache hit" 0
attr unit %
scalar Wifi2.hostA.lo[0].lo rcvdPkFromHl:count 0
attr interpolationmode none
attr source packetReceivedFromUpper
attr title "packets received from higher layer, count"
scalar Wifi2.hostA.lo[0].lo rcvdPkFromHl:sum(packetBytes) 0
attr interpolationmode none
attr source packetReceivedFromUpper
attr title "packets received from higher layer, sum(packetBytes)"
scalar Wifi2.hostA.lo[0].lo passedUpPk:count 0
attr interpolationmode none
attr source packetSentToUpper
attr title "packets passed to higher layer, count"
scalar Wifi2.hostA.lo[0].lo passedUpPk:sum(packetBytes) 0
attr interpolationmode none
attr source packetSentToUpper
attr title "packets passed to higher layer, sum(packetBytes)"
scalar Wifi2.hostA.wlan[0].mac.queue packetPopped:count 16702
attr interpolationmode none
attr title "packet popped, count"
scalar Wifi2.hostA.wlan[0].mac.queue packetPopped:sum(packetBytes) 17169656
attr interpolationmode none
attr title "packet popped, sum(packetBytes)"
statistic Wifi2.hostA.wlan[0].mac.queue queueingTime:histogram
field count 16702
field mean 3.287683337726e-05
field stddev 0.00014219354506948
field min 0
field max 0.001604896001
field sum 0.549108871067
field sqrsum 0.00035573055099674
attr interpolationmode none
attr source queueingTime(packetPopped)
attr title "queueing times, histogram"
attr unit s
bin	-inf	0
bin	0	15575
bin	2e-05	20
bin	4e-05	19
bin	6e-05	24
bin	8e-05	28
bin	0.0001	18
bin	0.00012	23
bin	0.00014	17
bin	0.00016	21
bin	0.00018	25
bin	0.0002	23
bin	0.00022	29
bin	0.00024	23
bin	0.00026	28
bin	0.00028	33
bin	0.0003	43
bin	0.00032	21
bin	0.00034	26
bin	0.00036	25
bin	0.00038	25
bin	0.0004	26
bin	0.00042	25
bin	0.00044	24
bin	0.00046	26
bin	0.00048	24
bin	0.0005	28
bin	0.00052	23
bin	0.00054	25
bin	0.00056	26
bin	0.00058	26
bin	0.0006	22
bin	0.00062	19
bin	0.00064	17
bin	0.00066	35
bin	0.00068	30
bin	0.0007	33
bin	0.00072	30
bin	0.00074	31
bin	0.00076	22
bin	0.00078	31
bin	0.0008	32
bin	0.00082	25
bin	0.00084	22
bin	0.00086	1
bin	0.00088	3
bin	0.0009	1
bin	0.00092	1
bin	0.00094	6
bin	0.00096	4
bin	0.00098	3
bin	0.001	2
bin	0.00102	0
bin	0.00104	3
bin	0.00106	0
bin	0.00108	2
bin	0.0011	0
bin	0.00112	0
bin	0.00114	1
bin	0.00116	3
bin	0.00118	3
bin	0.0012	1
bin	0.00122	0
bin	0.00124	1
bin	0.00126	0
bin	0.00128	6
bin	0.0013	1
bin	0.00132	1
bin	0.00134	4
bin	0.00136	0
bin	0.00138	1
bin	0.0014	2
bin	0.00142	0
bin	0.00144	0
bin	0.00146	0
bin	0.00148	1
bin	0.0015	0
bin	0.00152	0
bin	0.00154	2
bin	0.00156	0
bin	0.00158	0
bin	0.0016	1
bin	0.00162	0
scalar Wifi2.hostA.wlan[0].mac.queue queueLength:max 2
attr interpolationmode sample-hold
attr source "count(packetPushed) - count(packetPopped) - count(packetRemoved) - count(packetDropped)"
attr title "queue length, max"
scalar Wifi2.hostA.wlan[0].mac.queue queueLength:timeavg 0.0027458507270697
attr interpolationmode sample-hold
attr source "count(packetPushed) - count(packetPopped) - count(packetRemoved) - count(packetDropped)"
attr title "queue length, timeavg"
scalar Wifi2.hostA.wlan[0].mac.queue packetPushed:count 16702
attr interpolationmode none
attr title "packet pushed, count"
scalar Wifi2.hostA.wlan[0].mac.queue packetPushed:sum(packetBytes) 17169656
attr interpolationmode none
attr title "packet pushed, sum(packetBytes)"
scalar Wifi2.hostA.wlan[0].mac.queue packetDropQueueOverflow:count 0
attr interpolationmode none
attr source packetDropReasonIsQueueOverflow(packetDropped)
attr title "packet drops: queue overflow, count"
scalar Wifi2.hostA.wlan[0].mac.queue packetDropQueueOverflow:sum(packetBytes) 0
attr interpolationmode none
attr source packetDropReasonIsQueueOverflow(packetDropped)
attr title "packet drops: queue overflow, sum(packetBytes)"
scalar Wifi2.hostA.wlan[0].mac.queue packetRemoved:count 0
attr interpolationmode none
attr title "packets removed, count"
scalar Wifi2.hostA.wlan[0].mac.queue packetRemoved:sum(packetBytes) 0
attr interpolationmode none
attr title "packets removed, sum(packetBytes)"
scalar Wifi2.hostA.wlan[0].mac rcvdPkFromLl:count 0
attr interpolationmode none
attr source packetReceivedFromLower
attr title "packets received from lower layer, count"
scalar Wifi2.hostA.wlan[0].mac rcvdPkFromLl:sum(packetBytes) 0
attr interpolationmode none
attr source packetReceivedFromLower
attr title "packets received from lower layer, sum(packetBytes)"
scalar Wifi2.hostA.wlan[0].mac sentDownPk:count 16702
attr interpolationmode none
attr source packetSentToLower
attr title "packets sent to lower layer, count"
scalar Wifi2.hostA.wlan[0].mac sentDownPk:sum(packetBytes) 17553802
attr interpolationmode none
attr source packetSentToLower
attr title "packets sent to lower layer, sum(packetBytes)"
scalar Wifi2.hostA.wlan[0].mac rcvdPkFromHl:count 16702
attr interpolationmode none
attr source packetReceivedFromUpper
attr title "packets received from higher layer, count"
scalar Wifi2.hostA.wlan[0].mac rcvdPkFromHl:sum(packetBytes) 17169656
attr interpolationmode none
attr source packetReceivedFromUpper
attr title "packets received from higher layer, sum(packetBytes)"
scalar Wifi2.hostA.wlan[0].mac passedUpPk:count 0
attr interpolationmode none
attr source packetSentToUpper
attr title "packets passed to higher layer, count"
scalar Wifi2.hostA.wlan[0].mac passedUpPk:sum(packetBytes) 0
attr interpolationmode none
attr source packetSentToUpper
attr title "packets passed to higher layer, sum(packetBytes)"
scalar Wifi2.hostA.wlan[0].mac packetDropIncorrectlyReceived:count 0
attr interpolationmode none
attr source packetDropReasonIsIncorrectlyReceived(packetDropped)
attr title "packet drop: incorrectly received, count"
scalar Wifi2.hostA.wlan[0].mac packetDropIncorrectlyReceived:sum(packetBytes) 0
attr interpolationmode none
attr source packetDropReasonIsIncorrectlyReceived(packetDropped)
attr title "packet drop: incorrectly received, sum(packetBytes)"
scalar Wifi2.hostA.wlan[0].mac packetDropInterfaceDown:count 0
attr interpolationmode none
attr source packetDropReasonIsInterfaceDown(packetDropped)
attr title "packet drop: interface down, count"
scalar Wifi2.hostA.wlan[0].mac packetDropInterfaceDown:sum(packetBytes) 0
attr interpolationmode none
attr source packetDropReasonIsInterfaceDown(packetDropped)
attr title "packet drop: interface down, sum(packetBytes)"
scalar Wifi2.hostA.wlan[0].mac packetDropNotAddressedToUs:count 0
attr interpolationmode none
attr source packetDropReasonIsNotAddressedToUs(packetDropped)
attr title "packet drop: not addressed to us, count"
scalar Wifi2.hostA.wlan[0].mac packetDropNotAddressedToUs:sum(packetBytes) 0
attr interpolationmode none
attr source packetDropReasonIsNotAddressedToUs(packetDropped)
attr title "packet drop: not addressed to us, sum(packetBytes)"
scalar Wifi2.hostA.wlan[0].mac linkBroken:count 0
attr interpolationmode none
attr source linkBroken
attr title "link break, count"
scalar Wifi2.hostA.wlan[0].radio radioMode:count 33407
attr interpolationmode sample-hold
attr source radioModeChanged
attr title "Radio mode, count"
scalar Wifi2.hostA.wlan[0].radio receptionState:count 33405
attr interpolationmode sample-hold
attr source receptionStateChanged
attr title "Radio reception state, count"
scalar Wifi2.hostA.wlan[0].radio transmissionState:count 66808
attr interpolationmode sample-hold
attr source transmissionStateChanged
attr title "Radio transmission state, count"
statistic Wifi2.hostA.wlan[0].radio minSnir:histogram
field count 0
field mean -nan
field stddev -nan
field min -nan
field max -nan
field sum 0
field sqrsum 0
attr source minimumSnir(packetSentToUpper)
attr title "Min SNIR, histogram"
bin	-inf	0
bin	0	0
bin	1	0
statistic Wifi2.hostA.wlan[0].radio packetErrorRate:histogram
field count 0
field mean -nan
field stddev -nan
field min -nan
field max -nan
field sum 0
field sqrsum 0
attr source packetErrorRate(packetSentToUpper)
attr title "Packet error rate, histogram"
bin	-inf	0
bin	0	0
bin	1	0
statistic Wifi2.hostA.wlan[0].radio bitErrorRate:histogram
field count 0
field mean -nan
field stddev -nan
field min -nan
field max -nan
field sum 0
field sqrsum 0
attr source bitErrorRate(packetSentToUpper)
attr title "Bit error rate, histogram"
bin	-inf	0
bin	0	0
bin	1	0
statistic Wifi2.hostA.wlan[0].radio symbolErrorRate:histogram
field count 0
field mean -nan
field stddev -nan
field min -nan
field max -nan
field sum 0
field sqrsum 0
attr source symbolErrorRate(packetSentToUpper)
attr title "Symbol error rate, histogram"
bin	-inf	0
bin	0	0
bin	1	0
scalar Wifi2.hostA.ipv4.ip packetDropAddressResolutionFailed:count 0
attr interpolationmode none
attr source packetDropReasonIsAddressResolutionFailed(packetDropped)
attr title "packet drop: address resolution failed, count"
scalar Wifi2.hostA.ipv4.ip packetDropAddressResolutionFailed:sum(packetBytes) 0
attr interpolationmode none
attr source packetDropReasonIsAddressResolutionFailed(packetDropped)
attr title "packet drop: address resolution failed, sum(packetBytes)"
scalar Wifi2.hostA.ipv4.ip packetDropHopLimitReached:count 0
attr interpolationmode none
attr source packetDropReasonIsHopLimitReached(packetDropped)
attr title "packet drop: hop limit reached, count"
scalar Wifi2.hostA.ipv4.ip packetDropHopLimitReached:sum(packetBytes) 0
attr interpolationmode none
attr source packetDropReasonIsHopLimitReached(packetDropped)
attr title "packet drop: hop limit reached, sum(packetBytes)"
scalar Wifi2.hostA.ipv4.ip packetDropForwardingDisabled:count 0
attr interpolationmode none
attr source packetDropReasonIsForwardingDisabled(packetDropped)
attr title "packet drop: forwarding disabled, count"
scalar Wifi2.hostA.ipv4.ip packetDropForwardingDisabled:sum(packetBytes) 0
attr interpolationmode none
attr source packetDropReasonIsForwardingDisabled(packetDropped)
attr title "packet drop: forwarding disabled, sum(packetBytes)"
scalar Wifi2.hostA.ipv4.ip packetDropNoInterfaceFound:count 0
attr interpolationmode none
attr source packetDropReasonIsNoInterfaceFound(packetDropped)
attr title "packet drop: no interface found, count"
scalar Wifi2.hostA.ipv4.ip packetDropNoInterfaceFound:sum(packetBytes) 0
attr interpolationmode none
attr source packetDropReasonIsNoInterfaceFound(packetDropped)
attr title "packet drop: no interface found, sum(packetBytes)"
scalar Wifi2.hostA.ipv4.ip packetDropNoRouteFound:count 0
attr interpolationmode none
attr source packetDropReasonIsNoRouteFound(packetDropped)
attr title "packet drop: no route found, count"
scalar Wifi2.hostA.ipv4.ip packetDropNoRouteFound:sum(packetBytes) 0
attr interpolationmode none
attr source packetDropReasonIsNoRouteFound(packetDropped)
attr title "packet drop: no route found, sum(packetBytes)"
scalar Wifi2.hostA.ipv4.ip packetDropUndefined:count 0
attr interpolationmode none
attr source packetDropReasonIsUndefined(packetDropped)
attr title "packet drop: undefined, count"
scalar Wifi2.hostA.ipv4.ip packetDropUndefined:sum(packetBytes) 0
attr interpolationmode none
attr source packetDropReasonIsUndefined(packetDropped)
attr title "packet drop: undefined, sum(packetBytes)"
scalar Wifi2.hostA.udp packetReceived:count 0
attr interpolationmode none
attr source packetReceived
attr title "packets received, count"
scalar Wifi2.hostA.udp packetReceived:sum(packetBytes) 0
attr interpolationmode none
attr source packetReceived
attr title "packets received, sum(packetBytes)"
scalar Wifi2.hostA.udp packetSent:count 16702
attr interpolationmode none
attr source packetSent
attr title "packets sent, count"
scalar Wifi2.hostA.udp packetSent:sum(packetBytes) 16835616
attr interpolationmode none
attr source packetSent
attr title "packets sent, sum(packetBytes)"
scalar Wifi2.hostA.udp passedUpPk:count 0
attr interpolationmode none
attr source packetSentToUpper
attr title "packets passed up, count"
scalar Wifi2.hostA.udp droppedPkWrongPort:count 0
attr interpolationmode none
attr source packetDropReasonIsNoPortFound(packetDropped)
attr title "packets dropped (wrong port), count"
scalar Wifi2.hostA.udp droppedPkBadChecksum:count 0
attr interpolationmode none
attr source packetDropReasonIsIncorrectlyReceived(packetDropped)
attr title "packets dropped (checksum error), count"
scalar Wifi2.hostA.app[0] "packets sent" 16702
scalar Wifi2.hostA.app[0] "packets received" 0
scalar Wifi2.hostA.app[0] packetReceived:count 0
attr interpolationmode none
attr source packetReceived
attr title "packets received, count"
scalar Wifi2.hostA.app[0] packetReceived:sum(packetBytes) 0
attr interpolationmode none
attr source packetReceived
attr title "packets received, sum(packetBytes)"
statistic Wifi2.hostA.app[0] rcvdPkLifetime:stats
field count 0
field mean -nan
field stddev -nan
field min -nan
field max -nan
field sum 0
field sqrsum 0
attr interpolationmode none
attr source dataAge(packetReceived)
attr title "received packet lifetime, stats"
attr unit s
scalar Wifi2.hostA.app[0] packetSent:count 16702
attr interpolationmode none
attr source packetSent
attr title "packets sent, count"
scalar Wifi2.hostA.app[0] packetSent:sum(packetBytes) 16702000
attr interpolationmode none
attr source packetSent
attr title "packets sent, sum(packetBytes)"
scalar Wifi2.hostB.lo[0].lo rcvdPkFromHl:count 0
attr interpolationmode none
attr source packetReceivedFromUpper
attr title "packets received from higher layer, count"
scalar Wifi2.hostB.lo[0].lo rcvdPkFromHl:sum(packetBytes) 0
attr interpolationmode none
attr source packetReceivedFromUpper
attr title "packets received from higher layer, sum(packetBytes)"
scalar Wifi2.hostB.lo[0].lo passedUpPk:count 0
attr interpolationmode none
attr source packetSentToUpper
attr title "packets passed to higher layer, count"
scalar Wifi2.hostB.lo[0].lo passedUpPk:sum(packetBytes) 0
attr interpolationmode none
attr source packetSentToUpper
attr title "packets passed to higher layer, sum(packetBytes)"
scalar Wifi2.hostB.wlan[0].mac.queue packetPopped:count 0
attr interpolationmode none
attr title "packet popped, count"
scalar Wifi2.hostB.wlan[0].mac.queue packetPopped:sum(packetBytes) 0
attr interpolationmode none
attr title "packet popped, sum(packetBytes)"
statistic Wifi2.hostB.wlan[0].mac.queue queueingTime:histogram
field count 0
field mean -nan
field stddev -nan
field min -nan
field max -nan
field sum 0
field sqrsum 0
attr interpolationmode none
attr source queueingTime(packetPopped)
attr title "queueing times, histogram"
attr unit s
bin	-inf	0
bin	0	0
bin	1	0
scalar Wifi2.hostB.wlan[0].mac.queue queueLength:max -nan
attr interpolationmode sample-hold
attr source "count(packetPushed) - count(packetPopped) - count(packetRemoved) - count(packetDropped)"
attr title "queue length, max"
scalar Wifi2.hostB.wlan[0].mac.queue queueLength:timeavg -nan
attr interpolationmode sample-hold
attr source "count(packetPushed) - count(packetPopped) - count(packetRemoved) - count(packetDropped)"
attr title "queue length, timeavg"
scalar Wifi2.hostB.wlan[0].mac.queue packetPushed:count 0
attr interpolationmode none
attr title "packet pushed, count"
scalar Wifi2.hostB.wlan[0].mac.queue packetPushed:sum(packetBytes) 0
attr interpolationmode none
attr title "packet pushed, sum(packetBytes)"
scalar Wifi2.hostB.wlan[0].mac.queue packetDropQueueOverflow:count 0
attr interpolationmode none
attr source packetDropReasonIsQueueOverflow(packetDropped)
attr title "packet drops: queue overflow, count"
scalar Wifi2.hostB.wlan[0].mac.queue packetDropQueueOverflow:sum(packetBytes) 0
attr interpolationmode none
attr source packetDropReasonIsQueueOverflow(packetDropped)
attr title "packet drops: queue overflow, sum(packetBytes)"
scalar Wifi2.hostB.wlan[0].mac.queue packetRemoved:count 0
attr interpolationmode none
attr title "packets removed, count"
scalar Wifi2.hostB.wlan[0].mac.queue packetRemoved:sum(packetBytes) 0
attr interpolationmode none
attr title "packets removed, sum(packetBytes)"
scalar Wifi2.hostB.wlan[0].mac rcvdPkFromLl:count 16702
attr interpolationmode none
attr source packetReceivedFromLower
attr title "packets received from lower layer, count"
scalar Wifi2.hostB.wlan[0].mac rcvdPkFromLl:sum(packetBytes) 17553802
attr interpolationmode none
attr source packetReceivedFromLower
attr title "packets received from lower layer, sum(packetBytes)"
scalar Wifi2.hostB.wlan[0].mac sentDownPk:count 0
attr interpolationmode none
attr source packetSentToLower
attr title "packets sent to lower layer, count"
scalar Wifi2.hostB.wlan[0].mac sentDownPk:sum(packetBytes) 0
attr interpolationmode none
attr source packetSentToLower
attr title "packets sent to lower layer, sum(packetBytes)"
scalar Wifi2.hostB.wlan[0].mac rcvdPkFromHl:count 0
attr interpolationmode none
attr source packetReceivedFromUpper
attr title "packets received from higher layer, count"
scalar Wifi2.hostB.wlan[0].mac rcvdPkFromHl:sum(packetBytes) 0
attr interpolationmode none
attr source packetReceivedFromUpper
attr title "packets received from higher layer, sum(packetBytes)"
scalar Wifi2.hostB.wlan[0].mac passedUpPk:count 177
attr interpolationmode none
attr source packetSentToUpper
attr title "packets passed to higher layer, count"
scalar Wifi2.hostB.wlan[0].mac passedUpPk:sum(packetBytes) 181956
attr interpolationmode none
attr source packetSentToUpper
attr title "packets passed to higher layer, sum(packetBytes)"
scalar Wifi2.hostB.wlan[0].mac packetDropIncorrectlyReceived:count 0
attr interpolationmode none
attr source packetDropReasonIsIncorrectlyReceived(packetDropped)
attr title "packet drop: incorrectly received, count"
scalar Wifi2.hostB.wlan[0].mac packetDropIncorrectlyReceived:sum(packetBytes) 0
attr interpolationmode none
attr source packetDropReasonIsIncorrectlyReceived(packetDropped)
attr title "packet drop: incorrectly received, sum(packetBytes)"
scalar Wifi2.hostB.wlan[0].mac packetDropInterfaceDown:count 0
attr interpolationmode none
attr source packetDropReasonIsInterfaceDown(packetDropped)
attr title "packet drop: interface down, count"
scalar Wifi2.hostB.wlan[0].mac packetDropInterfaceDown:sum(packetBytes) 0
attr interpolationmode none
attr source packetDropReasonIsInterfaceDown(packetDropped)
attr title "packet drop: interface down, sum(packetBytes)"
scalar Wifi2.hostB.wlan[0].mac packetDropNotAddressedToUs:count 16525
attr interpolationmode none
attr source packetDropReasonIsNotAddressedToUs(packetDropped)
attr title "packet drop: not addressed to us, count"
scalar Wifi2.hostB.wlan[0].mac packetDropNotAddressedToUs:sum(packetBytes) 17367775
attr interpolationmode none
attr source packetDropReasonIsNotAddressedToUs(packetDropped)
attr title "packet drop: not addressed to us, sum(packetBytes)"
scalar Wifi2.hostB.wlan[0].mac linkBroken:count 0
attr interpolationmode none
attr source linkBroken
attr title "link break, count"
scalar Wifi2.hostB.wlan[0].radio radioMode:count 3
attr interpolationmode sample-hold
attr source radioModeChanged
attr title "Radio mode, count"
scalar Wifi2.hostB.wlan[0].radio receptionState:count 33405
attr interpolationmode sample-hold
attr source receptionStateChanged
attr title "Radio reception state, count"
scalar Wifi2.hostB.wlan[0].radio transmissionState:count 0
attr interpolationmode sample-hold
attr source transmissionStateChanged
attr title "Radio transmission state, count"
statistic Wifi2.hostB.wlan[0].radio minSnir:histogram
field count 0
field mean -nan
field stddev -nan
field min -nan
field max -nan
field sum 0
field sqrsum 0
attr source minimumSnir(packetSentToUpper)
attr title "Min SNIR, histogram"
bin	-inf	0
bin	0	0
bin	1	0
statistic Wifi2.hostB.wlan[0].radio packetErrorRate:histogram
field count 16702
field mean 0
field stddev 0
field min 0
field max 0
field sum 0
field sqrsum 0
attr source packetErrorRate(packetSentToUpper)
attr title "Packet error rate, histogram"
bin	-inf	0
bin	-0.5	0
bin	-0.48	0
bin	-0.46	0
bin	-0.44	0
bin	-0.42	0
bin	-0.4	0
bin	-0.38	0
bin	-0.36	0
bin	-0.34	0
bin	-0.32	0
bin	-0.3	0
bin	-0.28	0
bin	-0.26	0
bin	-0.24	0
bin	-0.22	0
bin	-0.2	0
bin	-0.18	0
bin	-0.16	0
bin	-0.14	0
bin	-0.12	0
bin	-0.1	0
bin	-0.08	0
bin	-0.06	0
bin	-0.04	0
bin	-0.02	0
bin	0	16702
bin	0.02	0
bin	0.04	0
bin	0.06	0
bin	0.08	0
bin	0.1	0
bin	0.12	0
bin	0.14	0
bin	0.16	0
bin	0.18	0
bin	0.2	0
bin	0.22	0
bin	0.24	0
bin	0.26	0
bin	0.28	0
bin	0.3	0
bin	0.32	0
bin	0.34	0
bin	0.36	0
bin	0.38	0
bin	0.4	0
bin	0.42	0
bin	0.44	0
bin	0.46	0
bin	0.48	0
bin	0.5	0
statistic Wifi2.hostB.wlan[0].radio bitErrorRate:histogram
field count 16702
field mean 0
field stddev 0
field min 0
field max 0
field sum 0
field sqrsum 0
attr source bitErrorRate(packetSentToUpper)
attr title "Bit error rate, histogram"
bin	-inf	0
bin	-0.5	0
bin	-0.48	0
bin	-0.46	0
bin	-0.44	0
bin	-0.42	0
bin	-0.4	0
bin	-0.38	0
bin	-0.36	0
bin	-0.34	0
bin	-0.32	0
bin	-0.3	0
bin	-0.28	0
bin	-0.26	0
bin	-0.24	0
bin	-0.22	0
bin	-0.2	0
bin	-0.18	0
bin	-0.16	0
bin	-0.14	0
bin	-0.12	0
bin	-0.1	0
bin	-0.08	0
bin	-0.06	0
bin	-0.04	0
bin	-0.02	0
bin	0	16702
bin	0.02	0
bin	0.04	0
bin	0.06	0
bin	0.08	0
bin	0.1	0
bin	0.12	0
bin	0.14	0
bin	0.16	0
bin	0.18	0
bin	0.2	0
bin	0.22	0
bin	0.24	0
bin	0.26	0
bin	0.28	0
bin	0.3	0
bin	0.32	0
bin	0.34	0
bin	0.36	0
bin	0.38	0
bin	0.4	0
bin	0.42	0
bin	0.44	0
bin	0.46	0
bin	0.48	0
bin	0.5	0
statistic Wifi2.hostB.wlan[0].radio symbolErrorRate:histogram
field count 16702
field mean 0
field stddev 0
field min 0
field max 0
field sum 0
field sqrsum 0
attr source symbolErrorRate(packetSentToUpper)
attr title "Symbol error rate, histogram"
bin	-inf	0
bin	-0.5	0
bin	-0.48	0
bin	-0.46	0
bin	-0.44	0
bin	-0.42	0
bin	-0.4	0
bin	-0.38	0
bin	-0.36	0
bin	-0.34	0
bin	-0.32	0
bin	-0.3	0
bin	-0.28	0
bin	-0.26	0
bin	-0.24	0
bin	-0.22	0
bin	-0.2	0
bin	-0.18	0
bin	-0.16	0
bin	-0.14	0
bin	-0.12	0
bin	-0.1	0
bin	-0.08	0
bin	-0.06	0
bin	-0.04	0
bin	-0.02	0
bin	0	16702
bin	0.02	0
bin	0.04	0
bin	0.06	0
bin	0.08	0
bin	0.1	0
bin	0.12	0
bin	0.14	0
bin	0.16	0
bin	0.18	0
bin	0.2	0
bin	0.22	0
bin	0.24	0
bin	0.26	0
bin	0.28	0
bin	0.3	0
bin	0.32	0
bin	0.34	0
bin	0.36	0
bin	0.38	0
bin	0.4	0
bin	0.42	0
bin	0.44	0
bin	0.46	0
bin	0.48	0
bin	0.5	0
scalar Wifi2.hostB.ipv4.ip packetDropAddressResolutionFailed:count 0
attr interpolationmode none
attr source packetDropReasonIsAddressResolutionFailed(packetDropped)
attr title "packet drop: address resolution failed, count"
scalar Wifi2.hostB.ipv4.ip packetDropAddressResolutionFailed:sum(packetBytes) 0
attr interpolationmode none
attr source packetDropReasonIsAddressResolutionFailed(packetDropped)
attr title "packet drop: address resolution failed, sum(packetBytes)"
scalar Wifi2.hostB.ipv4.ip packetDropHopLimitReached:count 0
attr interpolationmode none
attr source packetDropReasonIsHopLimitReached(packetDropped)
attr title "packet drop: hop limit reached, count"
scalar Wifi2.hostB.ipv4.ip packetDropHopLimitReached:sum(packetBytes) 0
attr interpolationmode none
attr source packetDropReasonIsHopLimitReached(packetDropped)
attr title "packet drop: hop limit reached, sum(packetBytes)"
scalar Wifi2.hostB.ipv4.ip packetDropForwardingDisabled:count 0
attr interpolationmode none
attr source packetDropReasonIsForwardingDisabled(packetDropped)
attr title "packet drop: forwarding disabled, count"
scalar Wifi2.hostB.ipv4.ip packetDropForwardingDisabled:sum(packetBytes) 0
attr interpolationmode none
attr source packetDropReasonIsForwardingDisabled(packetDropped)
attr title "packet drop: forwarding disabled, sum(packetBytes)"
scalar Wifi2.hostB.ipv4.ip packetDropNoInterfaceFound:count 0
attr interpolationmode none
attr source packetDropReasonIsNoInterfaceFound(packetDropped)
attr title "packet drop: no interface found, count"
scalar Wifi2.hostB.ipv4.ip packetDropNoInterfaceFound:sum(packetBytes) 0
attr interpolationmode none
attr source packetDropReasonIsNoInterfaceFound(packetDropped)
attr title "packet drop: no interface found, sum(packetBytes)"
scalar Wifi2.hostB.ipv4.ip packetDropNoRouteFound:count 0
attr interpolationmode none
attr source packetDropReasonIsNoRouteFound(packetDropped)
attr title "packet drop: no route found, count"
scalar Wifi2.hostB.ipv4.ip packetDropNoRouteFound:sum(packetBytes) 0
attr interpolationmode none
attr source packetDropReasonIsNoRouteFound(packetDropped)
attr title "packet drop: no route found, sum(packetBytes)"
scalar Wifi2.hostB.ipv4.ip packetDropUndefined:count 0
attr interpolationmode none
attr source packetDropReasonIsUndefined(packetDropped)
attr title "packet drop: undefined, count"
scalar Wifi2.hostB.ipv4.ip packetDropUndefined:sum(packetBytes) 0
attr interpolationmode none
attr source packetDropReasonIsUndefined(packetDropped)
attr title "packet drop: undefined, sum(packetBytes)"
scalar Wifi2.hostB.udp packetReceived:count 177
attr interpolationmode none
attr source packetReceived
attr title "packets received, count"
scalar Wifi2.hostB.udp packetReceived:sum(packetBytes) 178416
attr interpolationmode none
attr source packetReceived
attr title "packets received, sum(packetBytes)"
scalar Wifi2.hostB.udp packetSent:count 0
attr interpolationmode none
attr source packetSent
attr title "packets sent, count"
scalar Wifi2.hostB.udp packetSent:sum(packetBytes) 0
attr interpolationmode none
attr source packetSent
attr title "packets sent, sum(packetBytes)"
scalar Wifi2.hostB.udp passedUpPk:count 177
attr interpolationmode none
attr source packetSentToUpper
attr title "packets passed up, count"
scalar Wifi2.hostB.udp droppedPkWrongPort:count 0
attr interpolationmode none
attr source packetDropReasonIsNoPortFound(packetDropped)
attr title "packets dropped (wrong port), count"
scalar Wifi2.hostB.udp droppedPkBadChecksum:count 0
attr interpolationmode none
attr source packetDropReasonIsIncorrectlyReceived(packetDropped)
attr title "packets dropped (checksum error), count"
scalar Wifi2.hostB.app[0] packetReceived:count 177
attr interpolationmode none
attr source packetReceived
attr title "packets received, count"
scalar Wifi2.hostB.app[0] packetReceived:sum(packetBytes) 177000
attr interpolationmode none
attr source packetReceived
attr title "packets received, sum(packetBytes)"
statistic Wifi2.hostB.app[0] endToEndDelay:histogram
field count 177
field mean 0.00086754772989831
field stddev 9.09646035506e-05
field min 0.000851382266
field max 0.001529343711
field sum 0.153555948192
field sqrsum 0.0001346734366678
attr interpolationmode none
attr source dataAge(packetReceived)
attr title "end-to-end delay, histogram"
attr unit s
bin	-inf	0
bin	0.00068	0
bin	0.0007	0
bin	0.00072	0
bin	0.00074	0
bin	0.00076	0
bin	0.00078	0
bin	0.0008	0
bin	0.00082	0
bin	0.00084	169
bin	0.00086	0
bin	0.00088	0
bin	0.0009	1
bin	0.00092	1
bin	0.00094	1
bin	0.00096	0
bin	0.00098	0
bin	0.001	0
bin	0.00102	0
bin	0.00104	0
bin	0.00106	0
bin	0.00108	0
bin	0.0011	0
bin	0.00112	0
bin	0.00114	0
bin	0.00116	1
bin	0.00118	0
bin	0.0012	1
bin	0.00122	0
bin	0.00124	0
bin	0.00126	0
bin	0.00128	0
bin	0.0013	0
bin	0.00132	0
bin	0.00134	0
bin	0.00136	0
bin	0.00138	0
bin	0.0014	0
bin	0.00142	0
bin	0.00144	0
bin	0.00146	1
bin	0.00148	1
bin	0.0015	0
bin	0.00152	1
bin	0.00154	0
bin	0.00156	0
bin	0.00158	0
bin	0.0016	0
bin	0.00162	0
bin	0.00164	0
bin	0.00166	0
bin	0.00168	0
bin	0.0017	0
scalar Wifi2.hostC.lo[0].lo rcvdPkFromHl:count 0
attr interpolationmode none
attr source packetReceivedFromUpper
attr title "packets received from higher layer, count"
scalar Wifi2.hostC.lo[0].lo rcvdPkFromHl:sum(packetBytes) 0
attr interpolationmode none
attr source packetReceivedFromUpper
attr title "packets received from higher layer, sum(packetBytes)"
scalar Wifi2.hostC.lo[0].lo passedUpPk:count 0
attr interpolationmode none
attr source packetSentToUpper
attr title "packets passed to higher layer, count"
scalar Wifi2.hostC.lo[0].lo passedUpPk:sum(packetBytes) 0
attr interpolationmode none
attr source packetSentToUpper
attr title "packets passed to higher layer, sum(packetBytes)"
scalar Wifi2.hostC.wlan[0].mac.queue packetPopped:count 0
attr interpolationmode none
attr title "packet popped, count"
scalar Wifi2.hostC.wlan[0].mac.queue packetPopped:sum(packetBytes) 0
attr interpolationmode none
attr title "packet popped, sum(packetBytes)"
statistic Wifi2.hostC.wlan[0].mac.queue queueingTime:histogram
field count 0
field mean -nan
field stddev -nan
field min -nan
field max -nan
field sum 0
field sqrsum 0
attr interpolationmode none
attr source queueingTime(packetPopped)
attr title "queueing times, histogram"
attr unit s
bin	-inf	0
bin	0	0
bin	1	0
scalar Wifi2.hostC.wlan[0].mac.queue queueLength:max -nan
attr interpolationmode sample-hold
attr source "count(packetPushed) - count(packetPopped) - count(packetRemoved) - count(packetDropped)"
attr title "queue length, max"
scalar Wifi2.hostC.wlan[0].mac.queue queueLength:timeavg -nan
attr interpolationmode sample-hold
attr source "count(packetPushed) - count(packetPopped) - count(packetRemoved) - count(packetDropped)"
attr title "queue length, timeavg"
scalar Wifi2.hostC.wlan[0].mac.queue packetPushed:count 0
attr interpolationmode none
attr title "packet pushed, count"
scalar Wifi2.hostC.wlan[0].mac.queue packetPushed:sum(packetBytes) 0
attr interpolationmode none
attr title "packet pushed, sum(packetBytes)"
scalar Wifi2.hostC.wlan[0].mac.queue packetDropQueueOverflow:count 0
attr interpolationmode none
attr source packetDropReasonIsQueueOverflow(packetDropped)
attr title "packet drops: queue overflow, count"
scalar Wifi2.hostC.wlan[0].mac.queue packetDropQueueOverflow:sum(packetBytes) 0
attr interpolationmode none
attr source packetDropReasonIsQueueOverflow(packetDropped)
attr title "packet drops: queue overflow, sum(packetBytes)"
scalar Wifi2.hostC.wlan[0].mac.queue packetRemoved:count 0
attr interpolationmode none
attr title "packets removed, count"
scalar Wifi2.hostC.wlan[0].mac.queue packetRemoved:sum(packetBytes) 0
attr interpolationmode none
attr title "packets removed, sum(packetBytes)"
scalar Wifi2.hostC.wlan[0].mac rcvdPkFromLl:count 16702
attr interpolationmode none
attr source packetReceivedFromLower
attr title "packets received from lower layer, count"
scalar Wifi2.hostC.wlan[0].mac rcvdPkFromLl:sum(packetBytes) 17553802
attr interpolationmode none
attr source packetReceivedFromLower
attr title "packets received from lower layer, sum(packetBytes)"
scalar Wifi2.hostC.wlan[0].mac sentDownPk:count 0
attr interpolationmode none
attr source packetSentToLower
attr title "packets sent to lower layer, count"
scalar Wifi2.hostC.wlan[0].mac sentDownPk:sum(packetBytes) 0
attr interpolationmode none
attr source packetSentToLower
attr title "packets sent to lower layer, sum(packetBytes)"
scalar Wifi2.hostC.wlan[0].mac rcvdPkFromHl:count 0
attr interpolationmode none
attr source packetReceivedFromUpper
attr title "packets received from higher layer, count"
scalar Wifi2.hostC.wlan[0].mac rcvdPkFromHl:sum(packetBytes) 0
attr interpolationmode none
attr source packetReceivedFromUpper
attr title "packets received from higher layer, sum(packetBytes)"
scalar Wifi2.hostC.wlan[0].mac passedUpPk:count 180
attr interpolationmode none
attr source packetSentToUpper
attr title "packets passed to higher layer, count"
scalar Wifi2.hostC.wlan[0].mac passedUpPk:sum(packetBytes) 185040
attr interpolationmode none
attr source packetSentToUpper
attr title "packets passed to higher layer, sum(packetBytes)"
scalar Wifi2.hostC.wlan[0].mac packetDropIncorrectlyReceived:count 0
attr interpolationmode none
attr source packetDropReasonIsIncorrectlyReceived(packetDropped)
attr title "packet drop: incorrectly received, count"
scalar Wifi2.hostC.wlan[0].mac packetDropIncorrectlyReceived:sum(packetBytes) 0
attr interpolationmode none
attr source packetDropReasonIsIncorrectlyReceived(packetDropped)
attr title "packet drop: incorrectly received, sum(packetBytes)"
scalar Wifi2.hostC.wlan[0].mac packetDropInterfaceDown:count 0
attr interpolationmode none
attr source packetDropReasonIsInterfaceDown(packetDropped)
attr title "packet drop: interface down, count"
scalar Wifi2.hostC.wlan[0].mac packetDropInterfaceDown:sum(packetBytes) 0
attr interpolationmode none
attr source packetDropReasonIsInterfaceDown(packetDropped)
attr title "packet drop: interface down, sum(packetBytes)"
scalar Wifi2.hostC.wlan[0].mac packetDropNotAddressedToUs:count 16522
attr interpolationmode none
attr source packetDropReasonIsNotAddressedToUs(packetDropped)
attr title "packet drop: not addressed to us, count"
scalar Wifi2.hostC.wlan[0].mac packetDropNotAddressedToUs:sum(packetBytes) 17364622
attr interpolationmode none
attr source packetDropReasonIsNotAddressedToUs(packetDropped)
attr title "packet drop: not addressed to us, sum(packetBytes)"
scalar Wifi2.hostC.wlan[0].mac linkBroken:count 0
attr interpolationmode none
attr source linkBroken
attr title "link break, count"
scalar Wifi2.hostC.wlan[0].radio radioMode:count 3
attr interpolationmode sample-hold
attr source radioModeChanged
attr title "Radio mode, count"
scalar Wifi2.hostC.wlan[0].radio receptionState:count 33405
attr interpolationmode sample-hold
attr source receptionStateChanged
attr title "Radio reception state, count"
scalar Wifi2.hostC.wlan[0].radio transmissionState:count 0
attr interpolationmode sample-hold
attr source transmissionStateChanged
attr title "Radio transmission state, count"
statistic Wifi2.hostC.wlan[0].radio minSnir:histogram
field count 0
field mean -nan
field stddev -nan
field min -nan
field max -nan
field sum 0
field sqrsum 0
attr source minimumSnir(packetSentToUpper)
attr title "Min SNIR, histogram"
bin	-inf	0
bin	0	0
bin	1	0
statistic Wifi2.hostC.wlan[0].radio packetErrorRate:histogram
field count 16702
field mean 0
field stddev 0
field min 0
field max 0
field sum 0
field sqrsum 0
attr source packetErrorRate(packetSentToUpper)
attr title "Packet error rate, histogram"
bin	-inf	0
bin	-0.5	0
bin	-0.48	0
bin	-0.46	0
bin	-0.44	0
bin	-0.42	0
bin	-0.4	0
bin	-0.38	0
bin	-0.36	0
bin	-0.34	0
bin	-0.32	0
bin	-0.3	0
bin	-0.28	0
bin	-0.26	0
bin	-0.24	0
bin	-0.22	0
bin	-0.2	0
bin	-0.18	0
bin	-0.16	0
bin	-0.14	0
bin	-0.12	0
bin	-0.1	0
bin	-0.08	0
bin	-0.06	0
bin	-0.04	0
bin	-0.02	0
bin	0	16702
bin	0.02	0
bin	0.04	0
bin	0.06	0
bin	0.08	0
bin	0.1	0
bin	0.12	0
bin	0.14	0
bin	0.16	0
bin	0.18	0
bin	0.2	0
bin	0.22	0
bin	0.24	0
bin	0.26	0
bin	0.28	0
bin	0.3	0
bin	0.32	0
bin	0.34	0
bin	0.36	0
bin	0.38	0
bin	0.4	0
bin	0.42	0
bin	0.44	0
bin	0.46	0
bin	0.48	0
bin	0.5	0
statistic Wifi2.hostC.wlan[0].radio bitErrorRate:histogram
field count 16702
field mean 0
field stddev 0
field min 0
field max 0
field sum 0
field sqrsum 0
attr source bitErrorRate(packetSentToUpper)
attr title "Bit error rate, histogram"
bin	-inf	0
bin	-0.5	0
bin	-0.48	0
bin	-0.46	0
bin	-0.44	0
bin	-0.42	0
bin	-0.4	0
bin	-0.38	0
bin	-0.36	0
bin	-0.34	0
bin	-0.32	0
bin	-0.3	0
bin	-0.28	0
bin	-0.26	0
bin	-0.24	0
bin	-0.22	0
bin	-0.2	0
bin	-0.18	0
bin	-0.16	0
bin	-0.14	0
bin	-0.12	0
bin	-0.1	0
bin	-0.08	0
bin	-0.06	0
bin	-0.04	0
bin	-0.02	0
bin	0	16702
bin	0.02	0
bin	0.04	0
bin	0.06	0
bin	0.08	0
bin	0.1	0
bin	0.12	0
bin	0.14	0
bin	0.16	0
bin	0.18	0
bin	0.2	0
bin	0.22	0
bin	0.24	0
bin	0.26	0
bin	0.28	0
bin	0.3	0
bin	0.32	0
bin	0.34	0
bin	0.36	0
bin	0.38	0
bin	0.4	0
bin	0.42	0
bin	0.44	0
bin	0.46	0
bin	0.48	0
bin	0.5	0
statistic Wifi2.hostC.wlan[0].radio symbolErrorRate:histogram
field count 16702
field mean 0
field stddev 0
field min 0
field max 0
field sum 0
field sqrsum 0
attr source symbolErrorRate(packetSentToUpper)
attr title "Symbol error rate, histogram"
bin	-inf	0
bin	-0.5	0
bin	-0.48	0
bin	-0.46	0
bin	-0.44	0
bin	-0.42	0
bin	-0.4	0
bin	-0.38	0
bin	-0.36	0
bin	-0.34	0
bin	-0.32	0
bin	-0.3	0
bin	-0.28	0
bin	-0.26	0
bin	-0.24	0
bin	-0.22	0
bin	-0.2	0
bin	-0.18	0
bin	-0.16	0
bin	-0.14	0
bin	-0.12	0
bin	-0.1	0
bin	-0.08	0
bin	-0.06	0
bin	-0.04	0
bin	-0.02	0
bin	0	16702
bin	0.02	0
bin	0.04	0
bin	0.06	0
bin	0.08	0
bin	0.1	0
bin	0.12	0
bin	0.14	0
bin	0.16	0
bin	0.18	0
bin	0.2	0
bin	0.22	0
bin	0.24	0
bin	0.26	0
bin	0.28	0
bin	0.3	0
bin	0.32	0
bin	0.34	0
bin	0.36	0
bin	0.38	0
bin	0.4	0
bin	0.42	0
bin	0.44	0
bin	0.46	0
bin	0.48	0
bin	0.5	0
scalar Wifi2.hostC.ipv4.ip packetDropAddressResolutionFailed:count 0
attr interpolationmode none
attr source packetDropReasonIsAddressResolutionFailed(packetDropped)
attr title "packet drop: address resolution failed, count"
scalar Wifi2.hostC.ipv4.ip packetDropAddressResolutionFailed:sum(packetBytes) 0
attr interpolationmode none
attr source packetDropReasonIsAddressResolutionFailed(packetDropped)
attr title "packet drop: address resolution failed, sum(packetBytes)"
scalar Wifi2.hostC.ipv4.ip packetDropHopLimitReached:count 0
attr interpolationmode none
attr source packetDropReasonIsHopLimitReached(packetDropped)
attr title "packet drop: hop limit reached, count"
scalar Wifi2.hostC.ipv4.ip packetDropHopLimitReached:sum(packetBytes) 0
attr interpolationmode none
attr source packetDropReasonIsHopLimitReached(packetDropped)
attr title "packet drop: hop limit reached, sum(packetBytes)"
scalar Wifi2.hostC.ipv4.ip packetDropForwardingDisabled:count 0
attr interpolationmode none
attr source packetDropReasonIsForwardingDisabled(packetDropped)
attr title "packet drop: forwarding disabled, count"
scalar Wifi2.hostC.ipv4.ip packetDropForwardingDisabled:sum(packetBytes) 0
attr interpolationmode none
attr source packetDropReasonIsForwardingDisabled(packetDropped)
attr title "packet drop: forwarding disabled, sum(packetBytes)"
scalar Wifi2.hostC.ipv4.ip packetDropNoInterfaceFound:count 0
attr interpolationmode none
attr source packetDropReasonIsNoInterfaceFound(packetDropped)
attr title "packet drop: no interface found, count"
scalar Wifi2.hostC.ipv4.ip packetDropNoInterfaceFound:sum(packetBytes) 0
attr interpolationmode none
attr source packetDropReasonIsNoInterfaceFound(packetDropped)
attr title "packet drop: no interface found, sum(packetBytes)"
scalar Wifi2.hostC.ipv4.ip packetDropNoRouteFound:count 0
attr interpolationmode none
attr source packetDropReasonIsNoRouteFound(packetDropped)
attr title "packet drop: no route found, count"
scalar Wifi2.hostC.ipv4.ip packetDropNoRouteFound:sum(packetBytes) 0
attr interpolationmode none
attr source packetDropReasonIsNoRouteFound(packetDropped)
attr title "packet drop: no route found, sum(packetBytes)"
scalar Wifi2.hostC.ipv4.ip packetDropUndefined:count 0
attr interpolationmode none
attr source packetDropReasonIsUndefined(packetDropped)
attr title "packet drop: undefined, count"
scalar Wifi2.hostC.ipv4.ip packetDropUndefined:sum(packetBytes) 0
attr interpolationmode none
attr source packetDropReasonIsUndefined(packetDropped)
attr title "packet drop: undefined, sum(packetBytes)"
scalar Wifi2.hostC.udp packetReceived:count 180
attr interpolationmode none
attr source packetReceived
attr title "packets received, count"
scalar Wifi2.hostC.udp packetReceived:sum(packetBytes) 181440
attr interpolationmode none
attr source packetReceived
attr title "packets received, sum(packetBytes)"
scalar Wifi2.hostC.udp packetSent:count 0
attr interpolationmode none
attr source packetSent
attr title "packets sent, count"
scalar Wifi2.hostC.udp packetSent:sum(packetBytes) 0
attr interpolationmode none
attr source packetSent
attr title "packets sent, sum(packetBytes)"
scalar Wifi2.hostC.udp passedUpPk:count 180
attr interpolationmode none
attr source packetSentToUpper
attr title "packets passed up, count"
scalar Wifi2.hostC.udp droppedPkWrongPort:count 0
attr interpolationmode none
attr source packetDropReasonIsNoPortFound(packetDropped)
attr title "packets dropped (wrong port), count"
scalar Wifi2.hostC.udp droppedPkBadChecksum:count 0
attr interpolationmode none
attr source packetDropReasonIsIncorrectlyReceived(packetDropped)
attr title "packets dropped (checksum error), count"
scalar Wifi2.hostC.app[0] packetReceived:count 180
attr interpolationmode none
attr source packetReceived
attr title "packets received, count"
scalar Wifi2.hostC.app[0] packetReceived:sum(packetBytes) 180000
attr interpolationmode none
attr source packetReceived
attr title "packets received, sum(packetBytes)"
statistic Wifi2.hostC.app[0] endToEndDelay:histogram
field count 180
field mean 0.00087105736478889
field stddev 0.0001084013238512
field min 0.000851698315
field max 0.001670649471
field sum 0.156790325662
field sqrsum 0.00013867676951081
attr interpolationmode none
attr source dataAge(packetReceived)
attr title "end-to-end delay, histogram"
attr unit s
bin	-inf	0
bin	0.00074	0
bin	0.00076	0
bin	0.00078	0
bin	0.0008	0
bin	0.00082	0
bin	0.00084	173
bin	0.00086	0
bin	0.00088	0
bin	0.0009	0
bin	0.00092	0
bin	0.00094	0
bin	0.00096	0
bin	0.00098	0
bin	0.001	0
bin	0.00102	1
bin	0.00104	1
bin	0.00106	0
bin	0.00108	0
bin	0.0011	0
bin	0.00112	0
bin	0.00114	0
bin	0.00116	0
bin	0.00118	0
bin	0.0012	0
bin	0.00122	1
bin	0.00124	0
bin	0.00126	1
bin	0.00128	0
bin	0.0013	0
bin	0.00132	0
bin	0.00134	0
bin	0.00136	0
bin	0.00138	0
bin	0.0014	0
bin	0.00142	0
bin	0.00144	0
bin	0.00146	0
bin	0.00148	0
bin	0.0015	0
bin	0.00152	0
bin	0.00154	0
bin	0.00156	1
bin	0.00158	0
bin	0.0016	1
bin	0.00162	0
bin	0.00164	0
bin	0.00166	1
bin	0.00168	0
scalar Wifi2.hostD.lo[0].lo rcvdPkFromHl:count 0
attr interpolationmode none
attr source packetReceivedFromUpper
attr title "packets received from higher layer, count"
scalar Wifi2.hostD.lo[0].lo rcvdPkFromHl:sum(packetBytes) 0
attr interpolationmode none
attr source packetReceivedFromUpper
attr title "packets received from higher layer, sum(packetBytes)"
scalar Wifi2.hostD.lo[0].lo passedUpPk:count 0
attr interpolationmode none
attr source packetSentToUpper
attr title "packets passed to higher layer, count"
scalar Wifi2.hostD.lo[0].lo passedUpPk:sum(packetBytes) 0
attr interpolationmode none
attr source packetSentToUpper
attr title "packets passed to higher layer, sum(packetBytes)"
scalar Wifi2.hostD.wlan[0].mac.queue packetPopped:count 0
attr interpolationmode none
attr title "packet popped, count"
scalar Wifi2.hostD.wlan[0].mac.queue packetPopped:sum(packetBytes) 0
attr interpolationmode none
attr title "packet popped, sum(packetBytes)"
statistic Wifi2.hostD.wlan[0].mac.queue queueingTime:histogram
field count 0
field mean -nan
field stddev -nan
field min -nan
field max -nan
field sum 0
field sqrsum 0
attr interpolationmode none
attr source queueingTime(packetPopped)
attr title "queueing times, histogram"
attr unit s
bin	-inf	0
bin	0	0
bin	1	0
scalar Wifi2.hostD.wlan[0].mac.queue queueLength:max -nan
attr interpolationmode sample-hold
attr source "count(packetPushed) - count(packetPopped) - count(packetRemoved) - count(packetDropped)"
attr title "queue length, max"
scalar Wifi2.hostD.wlan[0].mac.queue queueLength:timeavg -nan
attr interpolationmode sample-hold
attr source "count(packetPushed) - count(packetPopped) - count(packetRemoved) - count(packetDropped)"
attr title "queue length, timeavg"
scalar Wifi2.hostD.wlan[0].mac.queue packetPushed:count 0
attr interpolationmode none
attr title "packet pushed, count"
scalar Wifi2.hostD.wlan[0].mac.queue packetPushed:sum(packetBytes) 0
attr interpolationmode none
attr title "packet pushed, sum(packetBytes)"
scalar Wifi2.hostD.wlan[0].mac.queue packetDropQueueOverflow:count 0
attr interpolationmode none
attr source packetDropReasonIsQueueOverflow(packetDropped)
attr title "packet drops: queue overflow, count"
scalar Wifi2.hostD.wlan[0].mac.queue packetDropQueueOverflow:sum(packetBytes) 0
attr interpolationmode none
attr source packetDropReasonIsQueueOverflow(packetDropped)
attr title "packet drops: queue overflow, sum(packetBytes)"
scalar Wifi2.hostD.wlan[0].mac.queue packetRemoved:count 0
attr interpolationmode none
attr title "packets removed, count"
scalar Wifi2.hostD.wlan[0].mac.queue packetRemoved:sum(packetBytes) 0
attr interpolationmode none
attr title "packets removed, sum(packetBytes)"
scalar Wifi2.hostD.wlan[0].mac rcvdPkFromLl:count 16702
attr interpolationmode none
attr source packetReceivedFromLower
attr title "packets received from lower layer, count"
scalar Wifi2.hostD.wlan[0].mac rcvdPkFromLl:sum(packetBytes) 17553802
attr interpolationmode none
attr source packetReceivedFromLower
attr title "packets received from lower layer, sum(packetBytes)"
scalar Wifi2.hostD.wlan[0].mac sentDownPk:count 0
attr interpolationmode none
attr source packetSentToLower
attr title "packets sent to lower layer, count"
scalar Wifi2.hostD.wlan[0].mac sentDownPk:sum(packetBytes) 0
attr interpolationmode none
attr source packetSentToLower
attr title "packets sent to lower layer, sum(packetBytes)"
scalar Wifi2.hostD.wlan[0].mac rcvdPkFromHl:count 0
attr interpolationmode none
attr source packetReceivedFromUpper
attr title "packets received from higher layer, count"
scalar Wifi2.hostD.wlan[0].mac rcvdPkFromHl:sum(packetBytes) 0
attr interpolationmode none
attr source packetReceivedFromUpper
attr title "packets received from higher layer, sum(packetBytes)"
scalar Wifi2.hostD.wlan[0].mac passedUpPk:count 173
attr interpolationmode none
attr source packetSentToUpper
attr title "packets passed to higher layer, count"
scalar Wifi2.hostD.wlan[0].mac passedUpPk:sum(packetBytes) 177844
attr interpolationmode none
attr source packetSentToUpper
attr title "packets passed to higher layer, sum(packetBytes)"
scalar Wifi2.hostD.wlan[0].mac packetDropIncorrectlyReceived:count 0
attr interpolationmode none
attr source packetDropReasonIsIncorrectlyReceived(packetDropped)
attr title "packet drop: incorrectly received, count"
scalar Wifi2.hostD.wlan[0].mac packetDropIncorrectlyReceived:sum(packetBytes) 0
attr interpolationmode none
attr source packetDropReasonIsIncorrectlyReceived(packetDropped)
attr title "packet drop: incorrectly received, sum(packetBytes)"
scalar Wifi2.hostD.wlan[0].mac packetDropInterfaceDown:count 0
attr interpolationmode none
attr source packetDropReasonIsInterfaceDown(packetDropped)
attr title "packet drop: interface down, count"
scalar Wifi2.hostD.wlan[0].mac packetDropInterfaceDown:sum(packetBytes) 0
attr interpolationmode none
attr source packetDropReasonIsInterfaceDown(packetDropped)
attr title "packet drop: interface down, sum(packetBytes)"
scalar Wifi2.hostD.wlan[0].mac packetDropNotAddressedToUs:count 16529
attr interpolationmode none
attr source packetDropReasonIsNotAddressedToUs(packetDropped)
attr title "packet drop: not addressed to us, count"
scalar Wifi2.hostD.wlan[0].mac packetDropNotAddressedToUs:sum(packetBytes) 17371979
attr interpolationmode none
attr source packetDropReasonIsNotAddressedToUs(packetDropped)
attr title "packet drop: not addressed to us, sum(packetBytes)"
scalar Wifi2.hostD.wlan[0].mac linkBroken:count 0
attr interpolationmode none
attr source linkBroken
attr title "link break, count"
scalar Wifi2.hostD.wlan[0].radio radioMode:count 3
attr interpolationmode sample-hold
attr source radioModeChanged
attr title "Radio mode, count"
scalar Wifi2.hostD.wlan[0].radio receptionState:count 33405
attr interpolationmode sample-hold
attr source receptionStateChanged
attr title "Radio reception state, count"
scalar Wifi2.hostD.wlan[0].radio transmissionState:count 0
attr interpolationmode sample-hold
attr source transmissionStateChanged
attr title "Radio transmission state, count"
statistic Wifi2.hostD.wlan[0].radio minSnir:histogram
field count 0
field mean -nan
field stddev -nan
field min -nan
field max -nan
field sum 0
field sqrsum 0
attr source minimumSnir(packetSentToUpper)
attr title "Min SNIR, histogram"
bin	-inf	0
bin	0	0
bin	1	0
statistic Wifi2.hostD.wlan[0].radio packetErrorRate:histogram
field count 16702
field mean 0
field stddev 0
field min 0
field max 0
field sum 0
field sqrsum 0
attr source packetErrorRate(packetSentToUpper)
attr title "Packet error rate, histogram"
bin	-inf	0
bin	-0.5	0
bin	-0.48	0
bin	-0.46	0
bin	-0.44	0
bin	-0.42	0
bin	-0.4	0
bin	-0.38	0
bin	-0.36	0
bin	-0.34	0
bin	-0.32	0
bin	-0.3	0
bin	-0.28	0
bin	-0.26	0
bin	-0.24	0
bin	-0.22	0
bin	-0.2	0
bin	-0.18	0
bin	-0.16	0
bin	-0.14	0
bin	-0.12	0
bin	-0.1	0
bin	-0.08	0
bin	-0.06	0
bin	-0.04	0
bin	-0.02	0
bin	0	16702
bin	0.02	0
bin	0.04	0
bin	0.06	0
bin	0.08	0
bin	0.1	0
bin	0.12	0
bin	0.14	0
bin	0.16	0
bin	0.18	0
bin	0.2	0
bin	0.22	0
bin	0.24	0
bin	0.26	0
bin	0.28	0
bin	0.3	0
bin	0.32	0
bin	0.34	0
bin	0.36	0
bin	0.38	0
bin	0.4	0
bin	0.42	0
bin	0.44	0
bin	0.46	0
bin	0.48	0
bin	0.5	0
statistic Wifi2.hostD.wlan[0].radio bitErrorRate:histogram
field count 16702
field mean 0
field stddev 0
field min 0
field max 0
field sum 0
field sqrsum 0
attr source bitErrorRate(packetSentToUpper)
attr title "Bit error rate, histogram"
bin	-inf	0
bin	-0.5	0
bin	-0.48	0
bin	-0.46	0
bin	-0.44	0
bin	-0.42	0
bin	-0.4	0
bin	-0.38	0
bin	-0.36	0
bin	-0.34	0
bin	-0.32	0
bin	-0.3	0
bin	-0.28	0
bin	-0.26	0
bin	-0.24	0
bin	-0.22	0
bin	-0.2	0
bin	-0.18	0
bin	-0.16	0
bin	-0.14	0
bin	-0.12	0
bin	-0.1	0
bin	-0.08	0
bin	-0.06	0
bin	-0.04	0
bin	-0.02	0
bin	0	16702
bin	0.02	0
bin	0.04	0
bin	0.06	0
bin	0.08	0
bin	0.1	0
bin	0.12	0
bin	0.14	0
bin	0.16	0
bin	0.18	0
bin	0.2	0
bin	0.22	0
bin	0.24	0
bin	0.26	0
bin	0.28	0
bin	0.3	0
bin	0.32	0
bin	0.34	0
bin	0.36	0
bin	0.38	0
bin	0.4	0
bin	0.42	0
bin	0.44	0
bin	0.46	0
bin	0.48	0
bin	0.5	0
statistic Wifi2.hostD.wlan[0].radio symbolErrorRate:histogram
field count 16702
field mean 0
field stddev 0
field min 0
field max 0
field sum 0
field sqrsum 0
attr source symbolErrorRate(packetSentToUpper)
attr title "Symbol error rate, histogram"
bin	-inf	0
bin	-0.5	0
bin	-0.48	0
bin	-0.46	0
bin	-0.44	0
bin	-0.42	0
bin	-0.4	0
bin	-0.38	0
bin	-0.36	0
bin	-0.34	0
bin	-0.32	0
bin	-0.3	0
bin	-0.28	0
bin	-0.26	0
bin	-0.24	0
bin	-0.22	0
bin	-0.2	0
bin	-0.18	0
bin	-0.16	0
bin	-0.14	0
bin	-0.12	0
bin	-0.1	0
bin	-0.08	0
bin	-0.06	0
bin	-0.04	0
bin	-0.02	0
bin	0	16702
bin	0.02	0
bin	0.04	0
bin	0.06	0
bin	0.08	0
bin	0.1	0
bin	0.12	0
bin	0.14	0
bin	0.16	0
bin	0.18	0
bin	0.2	0
bin	0.22	0
bin	0.24	0
bin	0.26	0
bin	0.28	0
bin	0.3	0
bin	0.32	0
bin	0.34	0
bin	0.36	0
bin	0.38	0
bin	0.4	0
bin	0.42	0
bin	0.44	0
bin	0.46	0
bin	0.48	0
bin	0.5	0
scalar Wifi2.hostD.ipv4.ip packetDropAddressResolutionFailed:count 0
attr interpolationmode none
attr source packetDropReasonIsAddressResolutionFailed(packetDropped)
attr title "packet drop: address resolution failed, count"
scalar Wifi2.hostD.ipv4.ip packetDropAddressResolutionFailed:sum(packetBytes) 0
attr interpolationmode none
attr source packetDropReasonIsAddressResolutionFailed(packetDropped)
attr title "packet drop: address resolution failed, sum(packetBytes)"
scalar Wifi2.hostD.ipv4.ip packetDropHopLimitReached:count 0
attr interpolationmode none
attr source packetDropReasonIsHopLimitReached(packetDropped)
attr title "packet drop: hop limit reached, count"
scalar Wifi2.hostD.ipv4.ip packetDropHopLimitReached:sum(packetBytes) 0
attr interpolationmode none
attr source packetDropReasonIsHopLimitReached(packetDropped)
attr title "packet drop: hop limit reached, sum(packetBytes)"
scalar Wifi2.hostD.ipv4.ip packetDropForwardingDisabled:count 0
attr interpolationmode none
attr source packetDropReasonIsForwardingDisabled(packetDropped)
attr title "packet drop: forwarding disabled, count"
scalar Wifi2.hostD.ipv4.ip packetDropForwardingDisabled:sum(packetBytes) 0
attr interpolationmode none
attr source packetDropReasonIsForwardingDisabled(packetDropped)
attr title "packet drop: forwarding disabled, sum(packetBytes)"
scalar Wifi2.hostD.ipv4.ip packetDropNoInterfaceFound:count 0
attr interpolationmode none
attr source packetDropReasonIsNoInterfaceFound(packetDropped)
attr title "packet drop: no interface found, count"
scalar Wifi2.hostD.ipv4.ip packetDropNoInterfaceFound:sum(packetBytes) 0
attr interpolationmode none
attr source packetDropReasonIsNoInterfaceFound(packetDropped)
attr title "packet drop: no interface found, sum(packetBytes)"
scalar Wifi2.hostD.ipv4.ip packetDropNoRouteFound:count 0
attr interpolationmode none
attr source packetDropReasonIsNoRouteFound(packetDropped)
attr title "packet drop: no route found, count"
scalar Wifi2.hostD.ipv4.ip packetDropNoRouteFound:sum(packetBytes) 0
attr interpolationmode none
attr source packetDropReasonIsNoRouteFound(packetDropped)
attr title "packet drop: no route found, sum(packetBytes)"
scalar Wifi2.hostD.ipv4.ip packetDropUndefined:count 0
attr interpolationmode none
attr source packetDropReasonIsUndefined(packetDropped)
attr title "packet drop: undefined, count"
scalar Wifi2.hostD.ipv4.ip packetDropUndefined:sum(packetBytes) 0
attr interpolationmode none
attr source packetDropReasonIsUndefined(packetDropped)
attr title "packet drop: undefined, sum(packetBytes)"
scalar Wifi2.hostD.udp packetReceived:count 173
attr interpolationmode none
attr source packetReceived
attr title "packets received, count"
scalar Wifi2.hostD.udp packetReceived:sum(packetBytes) 174384
attr interpolationmode none
attr source packetReceived
attr title "packets received, sum(packetBytes)"
scalar Wifi2.hostD.udp packetSent:count 0
attr interpolationmode none
attr source packetSent
attr title "packets sent, count"
scalar Wifi2.hostD.udp packetSent:sum(packetBytes) 0
attr interpolationmode none
attr source packetSent
attr title "packets sent, sum(packetBytes)"
scalar Wifi2.hostD.udp passedUpPk:count 173
attr interpolationmode none
attr source packetSentToUpper
attr title "packets passed up, count"
scalar Wifi2.hostD.udp droppedPkWrongPort:count 0
attr interpolationmode none
attr source packetDropReasonIsNoPortFound(packetDropped)
attr title "packets dropped (wrong port), count"
scalar Wifi2.hostD.udp droppedPkBadChecksum:count 0
attr interpolationmode none
attr source packetDropReasonIsIncorrectlyReceived(packetDropped)
attr title "packets dropped (checksum error), count"
scalar Wifi2.hostD.app[0] packetReceived:count 173
attr interpolationmode none
attr source packetReceived
attr title "packets received, count"
scalar Wifi2.hostD.app[0] packetReceived:sum(packetBytes) 173000
attr interpolationmode none
attr source packetReceived
attr title "packets received, sum(packetBytes)"
statistic Wifi2.hostD.app[0] endToEndDelay:histogram
field count 173
field mean 0.00089448102527168
field stddev 0.00016232195666952
field min 0.000851999174
field max 0.002036686326
field sum 0.154745217372
field sqrsum 0.00014294858852092
attr interpolationmode none
attr source dataAge(packetReceived)
attr title "end-to-end delay, histogram"
attr unit s
bin	-inf	0
bin	0.00054	0
bin	0.00056	0
bin	0.00058	0
bin	0.0006	0
bin	0.00062	0
bin	0.00064	0
bin	0.00066	0
bin	0.00068	0
bin	0.0007	0
bin	0.00072	0
bin	0.00074	0
bin	0.00076	0
bin	0.00078	0
bin	0.0008	0
bin	0.00082	0
bin	0.00084	159
bin	0.00086	0
bin	0.00088	0
bin	0.0009	1
bin	0.00092	0
bin	0.00094	0
bin	0.00096	0
bin	0.00098	0
bin	0.001	0
bin	0.00102	0
bin	0.00104	0
bin	0.00106	0
bin	0.00108	1
bin	0.0011	0
bin	0.00112	0
bin	0.00114	0
bin	0.00116	1
bin	0.00118	1
bin	0.0012	0
bin	0.00122	0
bin	0.00124	0
bin	0.00126	0
bin	0.00128	0
bin	0.0013	1
bin	0.00132	2
bin	0.00134	1
bin	0.00136	0
bin	0.00138	1
bin	0.0014	1
bin	0.00142	0
bin	0.00144	0
bin	0.00146	0
bin	0.00148	0
bin	0.0015	0
bin	0.00152	1
bin	0.00154	1
bin	0.00156	0
bin	0.00158	0
bin	0.0016	0
bin	0.00162	0
bin	0.00164	0
bin	0.00166	0
bin	0.00168	0
bin	0.0017	1
bin	0.00172	0
bin	0.00174	0
bin	0.00176	0
bin	0.00178	0
bin	0.0018	0
bin	0.00182	0
bin	0.00184	0
bin	0.00186	0
bin	0.00188	0
bin	0.0019	0
bin	0.00192	0
bin	0.00194	0
bin	0.00196	0
bin	0.00198	0
bin	0.002	0
bin	0.00202	1
bin	0.00204	0
bin	0.00206	0
bin	0.00208	0
bin	0.0021	0
bin	0.00212	0
bin	0.00214	0
bin	0.00216	0
bin	0.00218	0
bin	0.0022	0
bin	0.00222	0
bin	0.00224	0
bin	0.00226	0
bin	0.00228	0
bin	0.0023	0
bin	0.00232	0
bin	0.00234	0
scalar Wifi2.host5.lo[0].lo rcvdPkFromHl:count 0
attr interpolationmode none
attr source packetReceivedFromUpper
attr title "packets received from higher layer, count"
scalar Wifi2.host5.lo[0].lo rcvdPkFromHl:sum(packetBytes) 0
attr interpolationmode none
attr source packetReceivedFromUpper
attr title "packets received from higher layer, sum(packetBytes)"
scalar Wifi2.host5.lo[0].lo passedUpPk:count 0
attr interpolationmode none
attr source packetSentToUpper
attr title "packets passed to higher layer, count"
scalar Wifi2.host5.lo[0].lo passedUpPk:sum(packetBytes) 0
attr interpolationmode none
attr source packetSentToUpper
attr title "packets passed to higher layer, sum(packetBytes)"
scalar Wifi2.host5.wlan[0].mac.queue packetPopped:count 0
attr interpolationmode none
attr title "packet popped, count"
scalar Wifi2.host5.wlan[0].mac.queue packetPopped:sum(packetBytes) 0
attr interpolationmode none
attr title "packet popped, sum(packetBytes)"
statistic Wifi2.host5.wlan[0].mac.queue queueingTime:histogram
field count 0
field mean -nan
field stddev -nan
field min -nan
field max -nan
field sum 0
field sqrsum 0
attr interpolationmode none
attr source queueingTime(packetPopped)
attr title "queueing times, histogram"
attr unit s
bin	-inf	0
bin	0	0
bin	1	0
scalar Wifi2.host5.wlan[0].mac.queue queueLength:max -nan
attr interpolationmode sample-hold
attr source "count(packetPushed) - count(packetPopped) - count(packetRemoved) - count(packetDropped)"
attr title "queue length, max"
scalar Wifi2.host5.wlan[0].mac.queue queueLength:timeavg -nan
attr interpolationmode sample-hold
attr source "count(packetPushed) - count(packetPopped) - count(packetRemoved) - count(packetDropped)"
attr title "queue length, timeavg"
scalar Wifi2.host5.wlan[0].mac.queue packetPushed:count 0
attr interpolationmode none
attr title "packet pushed, count"
scalar Wifi2.host5.wlan[0].mac.queue packetPushed:sum(packetBytes) 0
attr interpolationmode none
attr title "packet pushed, sum(packetBytes)"
scalar Wifi2.host5.wlan[0].mac.queue packetDropQueueOverflow:count 0
attr interpolationmode none
attr source packetDropReasonIsQueueOverflow(packetDropped)
attr title "packet drops: queue overflow, count"
scalar Wifi2.host5.wlan[0].mac.queue packetDropQueueOverflow:sum(packetBytes) 0
attr interpolationmode none
attr source packetDropReasonIsQueueOverflow(packetDropped)
attr title "packet drops: queue overflow, sum(packetBytes)"
scalar Wifi2.host5.wlan[0].mac.queue packetRemoved:count 0
attr interpolationmode none
attr title "packets removed, count"
scalar Wifi2.host5.wlan[0].mac.queue packetRemoved:sum(packetBytes) 0
attr interpolationmode none
attr title "packets removed, sum(packetBytes)"
scalar Wifi2.host5.wlan[0].mac rcvdPkFromLl:count 16702
attr interpolationmode none
attr source packetReceivedFromLower
attr title "packets received from lower layer, count"
scalar Wifi2.host5.wlan[0].mac rcvdPkFromLl:sum(packetBytes) 17553802
attr interpolationmode none
attr source packetReceivedFromLower
attr title "packets received from lower layer, sum(packetBytes)"
scalar Wifi2.host5.wlan[0].mac sentDownPk:count 0
attr interpolationmode none
attr source packetSentToLower
attr title "packets sent to lower layer, count"
scalar Wifi2.host5.wlan[0].mac sentDownPk:sum(packetBytes) 0
attr interpolationmode none
attr source packetSentToLower
attr title "packets sent to lower layer, sum(packetBytes)"
scalar Wifi2.host5.wlan[0].mac rcvdPkFromHl:count 0
attr interpolationmode none
attr source packetReceivedFromUpper
attr title "packets received from higher layer, count"
scalar Wifi2.host5.wlan[0].mac rcvdPkFromHl:sum(packetBytes) 0
attr interpolationmode none
attr source packetReceivedFromUpper
attr title "packets received from higher layer, sum(packetBytes)"
scalar Wifi2.host5.wlan[0].mac passedUpPk:count 189
attr interpolationmode none
attr source packetSentToUpper
attr title "packets passed to higher layer, count"
scalar Wifi2.host5.wlan[0].mac passedUpPk:sum(packetBytes) 194292
attr interpolationmode none
attr source packetSentToUpper
attr title "packets passed to higher layer, sum(packetBytes)"
scalar Wifi2.host5.wlan[0].mac packetDropIncorrectlyReceived:count 0
attr interpolationmode none
attr source packetDropReasonIsIncorrectlyReceived(packetDropped)
attr title "packet drop: incorrectly received, count"
scalar Wifi2.host5.wlan[0].mac packetDropIncorrectlyReceived:sum(packetBytes) 0
attr interpolationmode none
attr source packetDropReasonIsIncorrectlyReceived(packetDropped)
attr title "packet drop: incorrectly received, sum(packetBytes)"
scalar Wifi2.host5.wlan[0].mac packetDropInterfaceDown:count 0
attr interpolationmode none
attr source packetDropReasonIsInterfaceDown(packetDropped)
attr title "packet drop: interface down, count"
scalar Wifi2.host5.wlan[0].mac packetDropInterfaceDown:sum(packetBytes) 0
attr interpolationmode none
attr source packetDropReasonIsInterfaceDown(packetDropped)
attr title "packet drop: interface down, sum(packetBytes)"
scalar Wifi2.host5.wlan[0].mac packetDropNotAddressedToUs:count 16513
attr interpolationmode none
attr source packetDropReasonIsNotAddressedToUs(packetDropped)
attr title "packet drop: not addressed to us, count"
scalar Wifi2.host5.wlan[0].mac packetDropNotAddressedToUs:sum(packetBytes) 17355163
attr interpolationmode none
attr source packetDropReasonIsNotAddressedToUs(packetDropped)
attr title "packet drop: not addressed to us, sum(packetBytes)"
scalar Wifi2.host5.wlan[0].mac linkBroken:count 0
attr interpolationmode none
attr source linkBroken
attr title "link break, count"
scalar Wifi2.host5.wlan[0].radio radioMode:count 3
attr interpolationmode sample-hold
attr source radioModeChanged
attr title "Radio mode, count"
scalar Wifi2.host5.wlan[0].radio receptionState:count 33405
attr interpolationmode sample-hold
attr source receptionStateChanged
attr title "Radio reception state, count"
scalar Wifi2.host5.wlan[0].radio transmissionState:count 0
attr interpolationmode sample-hold
attr source transmissionStateChanged
attr title "Radio transmission state, count"
statistic Wifi2.host5.wlan[0].radio minSnir:histogram
field count 0
field mean -nan
field stddev -nan
field min -nan
field max -nan
field sum 0
field sqrsum 0
attr source minimumSnir(packetSentToUpper)
attr title "Min SNIR, histogram"
bin	-inf	0
bin	0	0
bin	1	0
statistic Wifi2.host5.wlan[0].radio packetErrorRate:histogram
field count 16702
field mean 0
field stddev 0
field min 0
field max 0
field sum 0
field sqrsum 0
attr source packetErrorRate(packetSentToUpper)
attr title "Packet error rate, histogram"
bin	-inf	0
bin	-0.5	0
bin	-0.48	0
bin	-0.46	0
bin	-0.44	0
bin	-0.42	0
bin	-0.4	0
bin	-0.38	0
bin	-0.36	0
bin	-0.34	0
bin	-0.32	0
bin	-0.3	0
bin	-0.28	0
bin	-0.26	0
bin	-0.24	0
bin	-0.22	0
bin	-0.2	0
bin	-0.18	0
bin	-0.16	0
bin	-0.14	0
bin	-0.12	0
bin	-0.1	0
bin	-0.08	0
bin	-0.06	0
bin	-0.04	0
bin	-0.02	0
bin	0	16702
bin	0.02	0
bin	0.04	0
bin	0.06	0
bin	0.08	0
bin	0.1	0
bin	0.12	0
bin	0.14	0
bin	0.16	0
bin	0.18	0
bin	0.2	0
bin	0.22	0
bin	0.24	0
bin	0.26	0
bin	0.28	0
bin	0.3	0
bin	0.32	0
bin	0.34	0
bin	0.36	0
bin	0.38	0
bin	0.4	0
bin	0.42	0
bin	0.44	0
bin	0.46	0
bin	0.48	0
bin	0.5	0
statistic Wifi2.host5.wlan[0].radio bitErrorRate:histogram
field count 16702
field mean 0
field stddev 0
field min 0
field max 0
field sum 0
field sqrsum 0
attr source bitErrorRate(packetSentToUpper)
attr title "Bit error rate, histogram"
bin	-inf	0
bin	-0.5	0
bin	-0.48	0
bin	-0.46	0
bin	-0.44	0
bin	-0.42	0
bin	-0.4	0
bin	-0.38	0
bin	-0.36	0
bin	-0.34	0
bin	-0.32	0
bin	-0.3	0
bin	-0.28	0
bin	-0.26	0
bin	-0.24	0
bin	-0.22	0
bin	-0.2	0
bin	-0.18	0
bin	-0.16	0
bin	-0.14	0
bin	-0.12	0
bin	-0.1	0
bin	-0.08	0
bin	-0.06	0
bin	-0.04	0
bin	-0.02	0
bin	0	16702
bin	0.02	0
bin	0.04	0
bin	0.06	0
bin	0.08	0
bin	0.1	0
bin	0.12	0
bin	0.14	0
bin	0.16	0
bin	0.18	0
bin	0.2	0
bin	0.22	0
bin	0.24	0
bin	0.26	0
bin	0.28	0
bin	0.3	0
bin	0.32	0
bin	0.34	0
bin	0.36	0
bin	0.38	0
bin	0.4	0
bin	0.42	0
bin	0.44	0
bin	0.46	0
bin	0.48	0
bin	0.5	0
statistic Wifi2.host5.wlan[0].radio symbolErrorRate:histogram
field count 16702
field mean 0
field stddev 0
field min 0
field max 0
field sum 0
field sqrsum 0
attr source symbolErrorRate(packetSentToUpper)
attr title "Symbol error rate, histogram"
bin	-inf	0
bin	-0.5	0
bin	-0.48	0
bin	-0.46	0
bin	-0.44	0
bin	-0.42	0
bin	-0.4	0
bin	-0.38	0
bin	-0.36	0
bin	-0.34	0
bin	-0.32	0
bin	-0.3	0
bin	-0.28	0
bin	-0.26	0
bin	-0.24	0
bin	-0.22	0
bin	-0.2	0
bin	-0.18	0
bin	-0.16	0
bin	-0.14	0
bin	-0.12	0
bin	-0.1	0
bin	-0.08	0
bin	-0.06	0
bin	-0.04	0
bin	-0.02	0
bin	0	16702
bin	0.02	0
bin	0.04	0
bin	0.06	0
bin	0.08	0
bin	0.1	0
bin	0.12	0
bin	0.14	0
bin	0.16	0
bin	0.18	0
bin	0.2	0
bin	0.22	0
bin	0.24	0
bin	0.26	0
bin	0.28	0
bin	0.3	0
bin	0.32	0
bin	0.34	0
bin	0.36	0
bin	0.38	0
bin	0.4	0
bin	0.42	0
bin	0.44	0
bin	0.46	0
bin	0.48	0
bin	0.5	0
scalar Wifi2.host5.ipv4.ip packetDropAddressResolutionFailed:count 0
attr interpolationmode none
attr source packetDropReasonIsAddressResolutionFailed(packetDropped)
attr title "packet drop: address resolution failed, count"
scalar Wifi2.host5.ipv4.ip packetDropAddressResolutionFailed:sum(packetBytes) 0
attr interpolationmode none
attr source packetDropReasonIsAddressResolutionFailed(packetDropped)
attr title "packet drop: address resolution failed, sum(packetBytes)"
scalar Wifi2.host5.ipv4.ip packetDropHopLimitReached:count 0
attr interpolationmode none
attr source packetDropReasonIsHopLimitReached(packetDropped)
attr title "packet drop: hop limit reached, count"
scalar Wifi2.host5.ipv4.ip packetDropHopLimitReached:sum(packetBytes) 0
attr interpolationmode none
attr source packetDropReasonIsHopLimitReached(packetDropped)
attr title "packet drop: hop limit reached, sum(packetBytes)"
scalar Wifi2.host5.ipv4.ip packetDropForwardingDisabled:count 0
attr interpolationmode none
attr source packetDropReasonIsForwardingDisabled(packetDropped)
attr title "packet drop: forwarding disabled, count"
scalar Wifi2.host5.ipv4.ip packetDropForwardingDisabled:sum(packetBytes) 0
attr interpolationmode none
attr source packetDropReasonIsForwardingDisabled(packetDropped)
attr title "packet drop: forwarding disabled, sum(packetBytes)"
scalar Wifi2.host5.ipv4.ip packetDropNoInterfaceFound:count 0
attr interpolationmode none
attr source packetDropReasonIsNoInterfaceFound(packetDropped)
attr title "packet drop: no interface found, count"
scalar Wifi2.host5.ipv4.ip packetDropNoInterfaceFound:sum(packetBytes) 0
attr interpolationmode none
attr source packetDropReasonIsNoInterfaceFound(packetDropped)
attr title "packet drop: no interface found, sum(packetBytes)"
scalar Wifi2.host5.ipv4.ip packetDropNoRouteFound:count 0
attr interpolationmode none
attr source packetDropReasonIsNoRouteFound(packetDropped)
attr title "packet drop: no route found, count"
scalar Wifi2.host5.ipv4.ip packetDropNoRouteFound:sum(packetBytes) 0
attr interpolationmode none
attr source packetDropReasonIsNoRouteFound(packetDropped)
attr title "packet drop: no route found, sum(packetBytes)"
scalar Wifi2.host5.ipv4.ip packetDropUndefined:count 0
attr interpolationmode none
attr source packetDropReasonIsUndefined(packetDropped)
attr title "packet drop: undefined, count"
scalar Wifi2.host5.ipv4.ip packetDropUndefined:sum(packetBytes) 0
attr interpolationmode none
attr source packetDropReasonIsUndefined(packetDropped)
attr title "packet drop: undefined, sum(packetBytes)"
scalar Wifi2.host5.udp packetReceived:count 189
attr interpolationmode none
attr source packetReceived
attr title "packets received, count"
scalar Wifi2.host5.udp packetReceived:sum(packetBytes) 190512
[...]
bin	0.46	0
bin	0.48	0
bin	0.5	0
statistic Wifi2.host95.wlan[0].radio symbolErrorRate:histogram
field count 16702
field mean 0
field stddev 0
field min 0
field max 0
field sum 0
field sqrsum 0
attr source symbolErrorRate(packetSentToUpper)
attr title "Symbol error rate, histogram"
bin	-inf	0
bin	-0.5	0
bin	-0.48	0
bin	-0.46	0
bin	-0.44	0
bin	-0.42	0
bin	-0.4	0
bin	-0.38	0
bin	-0.36	0
bin	-0.34	0
bin	-0.32	0
bin	-0.3	0
bin	-0.28	0
bin	-0.26	0
bin	-0.24	0
bin	-0.22	0
bin	-0.2	0
bin	-0.18	0
bin	-0.16	0
bin	-0.14	0
bin	-0.12	0
bin	-0.1	0
bin	-0.08	0
bin	-0.06	0
bin	-0.04	0
bin	-0.02	0
bin	0	16702
bin	0.02	0
bin	0.04	0
bin	0.06	0
bin	0.08	0
bin	0.1	0
bin	0.12	0
bin	0.14	0
bin	0.16	0
bin	0.18	0
bin	0.2	0
bin	0.22	0
bin	0.24	0
bin	0.26	0
bin	0.28	0
bin	0.3	0
bin	0.32	0
bin	0.34	0
bin	0.36	0
bin	0.38	0
bin	0.4	0
bin	0.42	0
bin	0.44	0
bin	0.46	0
bin	0.48	0
bin	0.5	0
scalar Wifi2.host95.ipv4.ip packetDropAddressResolutionFailed:count 0
attr interpolationmode none
attr source packetDropReasonIsAddressResolutionFailed(packetDropped)
attr title "packet drop: address resolution failed, count"
scalar Wifi2.host95.ipv4.ip packetDropAddressResolutionFailed:sum(packetBytes) 0
attr interpolationmode none
attr source packetDropReasonIsAddressResolutionFailed(packetDropped)
attr title "packet drop: address resolution failed, sum(packetBytes)"
scalar Wifi2.host95.ipv4.ip packetDropHopLimitReached:count 0
attr interpolationmode none
attr source packetDropReasonIsHopLimitReached(packetDropped)
attr title "packet drop: hop limit reached, count"
scalar Wifi2.host95.ipv4.ip packetDropHopLimitReached:sum(packetBytes) 0
attr interpolationmode none
attr source packetDropReasonIsHopLimitReached(packetDropped)
attr title "packet drop: hop limit reached, sum(packetBytes)"
scalar Wifi2.host95.ipv4.ip packetDropForwardingDisabled:count 0
attr interpolationmode none
attr source packetDropReasonIsForwardingDisabled(packetDropped)
attr title "packet drop: forwarding disabled, count"
scalar Wifi2.host95.ipv4.ip packetDropForwardingDisabled:sum(packetBytes) 0
attr interpolationmode none
attr source packetDropReasonIsForwardingDisabled(packetDropped)
attr title "packet drop: forwarding disabled, sum(packetBytes)"
scalar Wifi2.host95.ipv4.ip packetDropNoInterfaceFound:count 0
attr interpolationmode none
attr source packetDropReasonIsNoInterfaceFound(packetDropped)
attr title "packet drop: no interface found, count"
scalar Wifi2.host95.ipv4.ip packetDropNoInterfaceFound:sum(packetBytes) 0
attr interpolationmode none
attr source packetDropReasonIsNoInterfaceFound(packetDropped)
attr title "packet drop: no interface found, sum(packetBytes)"
scalar Wifi2.host95.ipv4.ip packetDropNoRouteFound:count 0
attr interpolationmode none
attr source packetDropReasonIsNoRouteFound(packetDropped)
attr title "packet drop: no route found, count"
scalar Wifi2.host95.ipv4.ip packetDropNoRouteFound:sum(packetBytes) 0
attr interpolationmode none
attr source packetDropReasonIsNoRouteFound(packetDropped)
attr title "packet drop: no route found, sum(packetBytes)"
scalar Wifi2.host95.ipv4.ip packetDropUndefined:count 0
attr interpolationmode none
attr source packetDropReasonIsUndefined(packetDropped)
attr title "packet drop: undefined, count"
scalar Wifi2.host95.ipv4.ip packetDropUndefined:sum(packetBytes) 0
attr interpolationmode none
attr source packetDropReasonIsUndefined(packetDropped)
attr title "packet drop: undefined, sum(packetBytes)"
scalar Wifi2.host95.udp packetReceived:count 174
attr interpolationmode none
attr source packetReceived
attr title "packets received, count"
scalar Wifi2.host95.udp packetReceived:sum(packetBytes) 175392
attr interpolationmode none
attr source packetReceived
attr title "packets received, sum(packetBytes)"
scalar Wifi2.host95.udp packetSent:count 0
attr interpolationmode none
attr source packetSent
attr title "packets sent, count"
scalar Wifi2.host95.udp packetSent:sum(packetBytes) 0
attr interpolationmode none
attr source packetSent
attr title "packets sent, sum(packetBytes)"
scalar Wifi2.host95.udp passedUpPk:count 174
attr interpolationmode none
attr source packetSentToUpper
attr title "packets passed up, count"
scalar Wifi2.host95.udp droppedPkWrongPort:count 0
attr interpolationmode none
attr source packetDropReasonIsNoPortFound(packetDropped)
attr title "packets dropped (wrong port), count"
scalar Wifi2.host95.udp droppedPkBadChecksum:count 0
attr interpolationmode none
attr source packetDropReasonIsIncorrectlyReceived(packetDropped)
attr title "packets dropped (checksum error), count"
scalar Wifi2.host95.app[0] packetReceived:count 174
attr interpolationmode none
attr source packetReceived
attr title "packets received, count"
scalar Wifi2.host95.app[0] packetReceived:sum(packetBytes) 174000
attr interpolationmode none
attr source packetReceived
attr title "packets received, sum(packetBytes)"
statistic Wifi2.host95.app[0] endToEndDelay:histogram
field count 174
field mean 0.00088574354297701
field stddev 0.00013805990345323
field min 0.000851899251
field max 0.001697215383
field sum 0.154119376478
field sqrsum 0.00013980771545391
attr interpolationmode none
attr source dataAge(packetReceived)
attr title "end-to-end delay, histogram"
attr unit s
bin	-inf	0
bin	0.00064	0
bin	0.00066	0
bin	0.00068	0
bin	0.0007	0
bin	0.00072	0
bin	0.00074	0
bin	0.00076	0
bin	0.00078	0
bin	0.0008	0
bin	0.00082	0
bin	0.00084	162
bin	0.00086	0
bin	0.00088	0
bin	0.0009	0
bin	0.00092	0
bin	0.00094	0
bin	0.00096	0
bin	0.00098	1
bin	0.001	0
bin	0.00102	1
bin	0.00104	0
bin	0.00106	0
bin	0.00108	0
bin	0.0011	0
bin	0.00112	0
bin	0.00114	1
bin	0.00116	1
bin	0.00118	0
bin	0.0012	1
bin	0.00122	0
bin	0.00124	0
bin	0.00126	0
bin	0.00128	0
bin	0.0013	1
bin	0.00132	0
bin	0.00134	0
bin	0.00136	0
bin	0.00138	0
bin	0.0014	0
bin	0.00142	1
bin	0.00144	1
bin	0.00146	1
bin	0.00148	0
bin	0.0015	0
bin	0.00152	0
bin	0.00154	1
bin	0.00156	0
bin	0.00158	0
bin	0.0016	0
bin	0.00162	0
bin	0.00164	1
bin	0.00166	0
bin	0.00168	1
bin	0.0017	0
bin	0.00172	0
bin	0.00174	0
bin	0.00176	0
bin	0.00178	0
bin	0.0018	0
bin	0.00182	0
bin	0.00184	0
bin	0.00186	0
bin	0.00188	0
bin	0.0019	0
bin	0.00192	0
scalar Wifi2.host96.lo[0].lo rcvdPkFromHl:count 0
attr interpolationmode none
attr source packetReceivedFromUpper
attr title "packets received from higher layer, count"
scalar Wifi2.host96.lo[0].lo rcvdPkFromHl:sum(packetBytes) 0
attr interpolationmode none
attr source packetReceivedFromUpper
attr title "packets received from higher layer, sum(packetBytes)"
scalar Wifi2.host96.lo[0].lo passedUpPk:count 0
attr interpolationmode none
attr source packetSentToUpper
attr title "packets passed to higher layer, count"
scalar Wifi2.host96.lo[0].lo passedUpPk:sum(packetBytes) 0
attr interpolationmode none
attr source packetSentToUpper
attr title "packets passed to higher layer, sum(packetBytes)"
scalar Wifi2.host96.wlan[0].mac.queue packetPopped:count 0
attr interpolationmode none
attr title "packet popped, count"
scalar Wifi2.host96.wlan[0].mac.queue packetPopped:sum(packetBytes) 0
attr interpolationmode none
attr title "packet popped, sum(packetBytes)"
statistic Wifi2.host96.wlan[0].mac.queue queueingTime:histogram
field count 0
field mean -nan
field stddev -nan
field min -nan
field max -nan
field sum 0
field sqrsum 0
attr interpolationmode none
attr source queueingTime(packetPopped)
attr title "queueing times, histogram"
attr unit s
bin	-inf	0
bin	0	0
bin	1	0
scalar Wifi2.host96.wlan[0].mac.queue queueLength:max -nan
attr interpolationmode sample-hold
attr source "count(packetPushed) - count(packetPopped) - count(packetRemoved) - count(packetDropped)"
attr title "queue length, max"
scalar Wifi2.host96.wlan[0].mac.queue queueLength:timeavg -nan
attr interpolationmode sample-hold
attr source "count(packetPushed) - count(packetPopped) - count(packetRemoved) - count(packetDropped)"
attr title "queue length, timeavg"
scalar Wifi2.host96.wlan[0].mac.queue packetPushed:count 0
attr interpolationmode none
attr title "packet pushed, count"
scalar Wifi2.host96.wlan[0].mac.queue packetPushed:sum(packetBytes) 0
attr interpolationmode none
attr title "packet pushed, sum(packetBytes)"
scalar Wifi2.host96.wlan[0].mac.queue packetDropQueueOverflow:count 0
attr interpolationmode none
attr source packetDropReasonIsQueueOverflow(packetDropped)
attr title "packet drops: queue overflow, count"
scalar Wifi2.host96.wlan[0].mac.queue packetDropQueueOverflow:sum(packetBytes) 0
attr interpolationmode none
attr source packetDropReasonIsQueueOverflow(packetDropped)
attr title "packet drops: queue overflow, sum(packetBytes)"
scalar Wifi2.host96.wlan[0].mac.queue packetRemoved:count 0
attr interpolationmode none
attr title "packets removed, count"
scalar Wifi2.host96.wlan[0].mac.queue packetRemoved:sum(packetBytes) 0
attr interpolationmode none
attr title "packets removed, sum(packetBytes)"
scalar Wifi2.host96.wlan[0].mac rcvdPkFromLl:count 16702
attr interpolationmode none
attr source packetReceivedFromLower
attr title "packets received from lower layer, count"
scalar Wifi2.host96.wlan[0].mac rcvdPkFromLl:sum(packetBytes) 17553802
attr interpolationmode none
attr source packetReceivedFromLower
attr title "packets received from lower layer, sum(packetBytes)"
scalar Wifi2.host96.wlan[0].mac sentDownPk:count 0
attr interpolationmode none
attr source packetSentToLower
attr title "packets sent to lower layer, count"
scalar Wifi2.host96.wlan[0].mac sentDownPk:sum(packetBytes) 0
attr interpolationmode none
attr source packetSentToLower
attr title "packets sent to lower layer, sum(packetBytes)"
scalar Wifi2.host96.wlan[0].mac rcvdPkFromHl:count 0
attr interpolationmode none
attr source packetReceivedFromUpper
attr title "packets received from higher layer, count"
scalar Wifi2.host96.wlan[0].mac rcvdPkFromHl:sum(packetBytes) 0
attr interpolationmode none
attr source packetReceivedFromUpper
attr title "packets received from higher layer, sum(packetBytes)"
scalar Wifi2.host96.wlan[0].mac passedUpPk:count 173
attr interpolationmode none
attr source packetSentToUpper
attr title "packets passed to higher layer, count"
scalar Wifi2.host96.wlan[0].mac passedUpPk:sum(packetBytes) 177844
attr interpolationmode none
attr source packetSentToUpper
attr title "packets passed to higher layer, sum(packetBytes)"
scalar Wifi2.host96.wlan[0].mac packetDropIncorrectlyReceived:count 0
attr interpolationmode none
attr source packetDropReasonIsIncorrectlyReceived(packetDropped)
attr title "packet drop: incorrectly received, count"
scalar Wifi2.host96.wlan[0].mac packetDropIncorrectlyReceived:sum(packetBytes) 0
attr interpolationmode none
attr source packetDropReasonIsIncorrectlyReceived(packetDropped)
attr title "packet drop: incorrectly received, sum(packetBytes)"
scalar Wifi2.host96.wlan[0].mac packetDropInterfaceDown:count 0
attr interpolationmode none
attr source packetDropReasonIsInterfaceDown(packetDropped)
attr title "packet drop: interface down, count"
scalar Wifi2.host96.wlan[0].mac packetDropInterfaceDown:sum(packetBytes) 0
attr interpolationmode none
attr source packetDropReasonIsInterfaceDown(packetDropped)
attr title "packet drop: interface down, sum(packetBytes)"
scalar Wifi2.host96.wlan[0].mac packetDropNotAddressedToUs:count 16529
attr interpolationmode none
attr source packetDropReasonIsNotAddressedToUs(packetDropped)
attr title "packet drop: not addressed to us, count"
scalar Wifi2.host96.wlan[0].mac packetDropNotAddressedToUs:sum(packetBytes) 17371979
attr interpolationmode none
attr source packetDropReasonIsNotAddressedToUs(packetDropped)
attr title "packet drop: not addressed to us, sum(packetBytes)"
scalar Wifi2.host96.wlan[0].mac linkBroken:count 0
attr interpolationmode none
attr source linkBroken
attr title "link break, count"
scalar Wifi2.host96.wlan[0].radio radioMode:count 3
attr interpolationmode sample-hold
attr source radioModeChanged
attr title "Radio mode, count"
scalar Wifi2.host96.wlan[0].radio receptionState:count 33405
attr interpolationmode sample-hold
attr source receptionStateChanged
attr title "Radio reception state, count"
scalar Wifi2.host96.wlan[0].radio transmissionState:count 0
attr interpolationmode sample-hold
attr source transmissionStateChanged
attr title "Radio transmission state, count"
statistic Wifi2.host96.wlan[0].radio minSnir:histogram
field count 0
field mean -nan
field stddev -nan
field min -nan
field max -nan
field sum 0
field sqrsum 0
attr source minimumSnir(packetSentToUpper)
attr title "Min SNIR, histogram"
bin	-inf	0
bin	0	0
bin	1	0
statistic Wifi2.host96.wlan[0].radio packetErrorRate:histogram
field count 16702
field mean 0
field stddev 0
field min 0
field max 0
field sum 0
field sqrsum 0
attr source packetErrorRate(packetSentToUpper)
attr title "Packet error rate, histogram"
bin	-inf	0
bin	-0.5	0
bin	-0.48	0
bin	-0.46	0
bin	-0.44	0
bin	-0.42	0
bin	-0.4	0
bin	-0.38	0
bin	-0.36	0
bin	-0.34	0
bin	-0.32	0
bin	-0.3	0
bin	-0.28	0
bin	-0.26	0
bin	-0.24	0
bin	-0.22	0
bin	-0.2	0
bin	-0.18	0
bin	-0.16	0
bin	-0.14	0
bin	-0.12	0
bin	-0.1	0
bin	-0.08	0
bin	-0.06	0
bin	-0.04	0
bin	-0.02	0
bin	0	16702
bin	0.02	0
bin	0.04	0
bin	0.06	0
bin	0.08	0
bin	0.1	0
bin	0.12	0
bin	0.14	0
bin	0.16	0
bin	0.18	0
bin	0.2	0
bin	0.22	0
bin	0.24	0
bin	0.26	0
bin	0.28	0
bin	0.3	0
bin	0.32	0
bin	0.34	0
bin	0.36	0
bin	0.38	0
bin	0.4	0
bin	0.42	0
bin	0.44	0
bin	0.46	0
bin	0.48	0
bin	0.5	0
statistic Wifi2.host96.wlan[0].radio bitErrorRate:histogram
field count 16702
field mean 0
field stddev 0
field min 0
field max 0
field sum 0
field sqrsum 0
attr source bitErrorRate(packetSentToUpper)
attr title "Bit error rate, histogram"
bin	-inf	0
bin	-0.5	0
bin	-0.48	0
bin	-0.46	0
bin	-0.44	0
bin	-0.42	0
bin	-0.4	0
bin	-0.38	0
bin	-0.36	0
bin	-0.34	0
bin	-0.32	0
bin	-0.3	0
bin	-0.28	0
bin	-0.26	0
bin	-0.24	0
bin	-0.22	0
bin	-0.2	0
bin	-0.18	0
bin	-0.16	0
bin	-0.14	0
bin	-0.12	0
bin	-0.1	0
bin	-0.08	0
bin	-0.06	0
bin	-0.04	0
bin	-0.02	0
bin	0	16702
bin	0.02	0
bin	0.04	0
bin	0.06	0
bin	0.08	0
bin	0.1	0
bin	0.12	0
bin	0.14	0
bin	0.16	0
bin	0.18	0
bin	0.2	0
bin	0.22	0
bin	0.24	0
bin	0.26	0
bin	0.28	0
bin	0.3	0
bin	0.32	0
bin	0.34	0
bin	0.36	0
bin	0.38	0
bin	0.4	0
bin	0.42	0
bin	0.44	0
bin	0.46	0
bin	0.48	0
bin	0.5	0
statistic Wifi2.host96.wlan[0].radio symbolErrorRate:histogram
field count 16702
field mean 0
field stddev 0
field min 0
field max 0
field sum 0
field sqrsum 0
attr source symbolErrorRate(packetSentToUpper)
attr title "Symbol error rate, histogram"
bin	-inf	0
bin	-0.5	0
bin	-0.48	0
bin	-0.46	0
bin	-0.44	0
bin	-0.42	0
bin	-0.4	0
bin	-0.38	0
bin	-0.36	0
bin	-0.34	0
bin	-0.32	0
bin	-0.3	0
bin	-0.28	0
bin	-0.26	0
bin	-0.24	0
bin	-0.22	0
bin	-0.2	0
bin	-0.18	0
bin	-0.16	0
bin	-0.14	0
bin	-0.12	0
bin	-0.1	0
bin	-0.08	0
bin	-0.06	0
bin	-0.04	0
bin	-0.02	0
bin	0	16702
bin	0.02	0
bin	0.04	0
bin	0.06	0
bin	0.08	0
bin	0.1	0
bin	0.12	0
bin	0.14	0
bin	0.16	0
bin	0.18	0
bin	0.2	0
bin	0.22	0
bin	0.24	0
bin	0.26	0
bin	0.28	0
bin	0.3	0
bin	0.32	0
bin	0.34	0
bin	0.36	0
bin	0.38	0
bin	0.4	0
bin	0.42	0
bin	0.44	0
bin	0.46	0
bin	0.48	0
bin	0.5	0
scalar Wifi2.host96.ipv4.ip packetDropAddressResolutionFailed:count 0
attr interpolationmode none
attr source packetDropReasonIsAddressResolutionFailed(packetDropped)
attr title "packet drop: address resolution failed, count"
scalar Wifi2.host96.ipv4.ip packetDropAddressResolutionFailed:sum(packetBytes) 0
attr interpolationmode none
attr source packetDropReasonIsAddressResolutionFailed(packetDropped)
attr title "packet drop: address resolution failed, sum(packetBytes)"
scalar Wifi2.host96.ipv4.ip packetDropHopLimitReached:count 0
attr interpolationmode none
attr source packetDropReasonIsHopLimitReached(packetDropped)
attr title "packet drop: hop limit reached, count"
scalar Wifi2.host96.ipv4.ip packetDropHopLimitReached:sum(packetBytes) 0
attr interpolationmode none
attr source packetDropReasonIsHopLimitReached(packetDropped)
attr title "packet drop: hop limit reached, sum(packetBytes)"
scalar Wifi2.host96.ipv4.ip packetDropForwardingDisabled:count 0
attr interpolationmode none
attr source packetDropReasonIsForwardingDisabled(packetDropped)
attr title "packet drop: forwarding disabled, count"
scalar Wifi2.host96.ipv4.ip packetDropForwardingDisabled:sum(packetBytes) 0
attr interpolationmode none
attr source packetDropReasonIsForwardingDisabled(packetDropped)
attr title "packet drop: forwarding disabled, sum(packetBytes)"
scalar Wifi2.host96.ipv4.ip packetDropNoInterfaceFound:count 0
attr interpolationmode none
attr source packetDropReasonIsNoInterfaceFound(packetDropped)
attr title "packet drop: no interface found, count"
scalar Wifi2.host96.ipv4.ip packetDropNoInterfaceFound:sum(packetBytes) 0
attr interpolationmode none
attr source packetDropReasonIsNoInterfaceFound(packetDropped)
attr title "packet drop: no interface found, sum(packetBytes)"
scalar Wifi2.host96.ipv4.ip packetDropNoRouteFound:count 0
attr interpolationmode none
attr source packetDropReasonIsNoRouteFound(packetDropped)
attr title "packet drop: no route found, count"
scalar Wifi2.host96.ipv4.ip packetDropNoRouteFound:sum(packetBytes) 0
attr interpolationmode none
attr source packetDropReasonIsNoRouteFound(packetDropped)
attr title "packet drop: no route found, sum(packetBytes)"
scalar Wifi2.host96.ipv4.ip packetDropUndefined:count 0
attr interpolationmode none
attr source packetDropReasonIsUndefined(packetDropped)
attr title "packet drop: undefined, count"
scalar Wifi2.host96.ipv4.ip packetDropUndefined:sum(packetBytes) 0
attr interpolationmode none
attr source packetDropReasonIsUndefined(packetDropped)
attr title "packet drop: undefined, sum(packetBytes)"
scalar Wifi2.host96.udp packetReceived:count 173
attr interpolationmode none
attr source packetReceived
attr title "packets received, count"
scalar Wifi2.host96.udp packetReceived:sum(packetBytes) 174384
attr interpolationmode none
attr source packetReceived
attr title "packets received, sum(packetBytes)"
scalar Wifi2.host96.udp packetSent:count 0
attr interpolationmode none
attr source packetSent
attr title "packets sent, count"
scalar Wifi2.host96.udp packetSent:sum(packetBytes) 0
attr interpolationmode none
attr source packetSent
attr title "packets sent, sum(packetBytes)"
scalar Wifi2.host96.udp passedUpPk:count 173
attr interpolationmode none
attr source packetSentToUpper
attr title "packets passed up, count"
scalar Wifi2.host96.udp droppedPkWrongPort:count 0
attr interpolationmode none
attr source packetDropReasonIsNoPortFound(packetDropped)
attr title "packets dropped (wrong port), count"
scalar Wifi2.host96.udp droppedPkBadChecksum:count 0
attr interpolationmode none
attr source packetDropReasonIsIncorrectlyReceived(packetDropped)
attr title "packets dropped (checksum error), count"
scalar Wifi2.host96.app[0] packetReceived:count 173
attr interpolationmode none
attr source packetReceived
attr title "packets received, count"
scalar Wifi2.host96.app[0] packetReceived:sum(packetBytes) 173000
attr interpolationmode none
attr source packetReceived
attr title "packets received, sum(packetBytes)"
statistic Wifi2.host96.app[0] endToEndDelay:histogram
field count 173
field mean 0.00087834870073989
field stddev 0.00011461472517599
field min 0.000851807225
field max 0.001667663406
field sum 0.151954325228
field sqrsum 0.00013572836819489
attr interpolationmode none
attr source dataAge(packetReceived)
attr title "end-to-end delay, histogram"
attr unit s
bin	-inf	0
bin	0.00075	0
bin	0.00077	0
bin	0.00079	0
bin	0.00081	0
bin	0.00083	0
bin	0.00085	161
bin	0.00087	1
bin	0.00089	0
bin	0.00091	0
bin	0.00093	0
bin	0.00095	0
bin	0.00097	0
bin	0.00099	0
bin	0.00101	1
bin	0.00103	0
bin	0.00105	0
bin	0.00107	0
bin	0.00109	1
bin	0.00111	1
bin	0.00113	1
bin	0.00115	2
bin	0.00117	0
bin	0.00119	0
bin	0.00121	1
bin	0.00123	1
bin	0.00125	0
bin	0.00127	0
bin	0.00129	0
bin	0.00131	0
bin	0.00133	0
bin	0.00135	0
bin	0.00137	0
bin	0.00139	0
bin	0.00141	0
bin	0.00143	0
bin	0.00145	1
bin	0.00147	0
bin	0.00149	0
bin	0.00151	0
bin	0.00153	0
bin	0.00155	0
bin	0.00157	0
bin	0.00159	0
bin	0.00161	0
bin	0.00163	1
bin	0.00165	1
bin	0.00167	0

