file 216169847 1592555821                                       
version 2
run Wifi100-0-20200619-10:29:27-3234
attr configname Wifi100
attr datetime 20200619-10:29:27
attr experiment Wifi100
attr inifile omnetpp.ini
attr iterationvars ""
attr iterationvarsf ""
attr measurement ""
attr network Wifi2
attr processid 3234
attr repetition 0
attr replication #0
attr resultdir results
attr runnumber 0
attr seedset 0
param *.host*.ipv4.arp.typename "\"GlobalArp\""
param *.hostA.numApps 1
param *.hostA.app[0].typename "\"UdpBasicApp\""
param *.hostA.app[0].destAddresses "\"hostB hostC hostD host5 host6 host7 host8 host9 host10 host11 host12 host13 host14 host15 host16 host17 host18 host19 host20 host21 host22 host23 host24 host25 host26 host27 host28 host29 host30 host31 host32 host33 host34 host35 host36 host37 host38 host39 host40 host41 host42 host43 host44 host45 host46 host47 host48 host49 host50 host51 host52 host53 host54 host55 host56 host57 host58 host59 host60 host61 host62 host63 host64 host65 host66 host67 host68 host69 host70  host71 host72 host73 host74 host75 host76 host77 host78 host79 host80 host81 host82 host53 host84 host85 host86 host87 host88 host89 host90 host91 host92 host93 host94 host95 host96   \""
param *.hostA.app[0].destPort 1500
param *.hostA.app[0].messageLength 1000B
param *.hostA.app[0].sendInterval exponential(12ms)
param *.hostA.app[0].packetName "\"UDPData\""
param *.hostB*.numApps 1
param *.hostB*.app[0].typename "\"UdpSink\""
param *.hostB*.app[0].localPort 1500
param *.hostC*.numApps 1
param *.hostC*.app[0].typename "\"UdpSink\""
param *.hostC*.app[0].localPort 1500
param *.hostD*.numApps 1
param *.hostD*.app[0].typename "\"UdpSink\""
param *.hostD*.app[0].localPort 1500
param *.host5*.numApps 1
param *.host5*.app[0].typename "\"UdpSink\""
param *.host5*.app[0].localPort 1500
param *.host6*.numApps 1
param *.host6*.app[0].typename "\"UdpSink\""
param *.host6*.app[0].localPort 1500
param *.host7*.numApps 1
param *.host7*.app[0].typename "\"UdpSink\""
param *.host7*.app[0].localPort 1500
param *.host8*.numApps 1
param *.host8*.app[0].typename "\"UdpSink\""
param *.host8*.app[0].localPort 1500
param *.host9*.numApps 1
param *.host9*.app[0].typename "\"UdpSink\""
param *.host9*.app[0].localPort 1500
param *.host10*.numApps 1
param *.host10*.app[0].typename "\"UdpSink\""
param *.host10*.app[0].localPort 1500
param *.host11*.numApps 1
param *.host11*.app[0].typename "\"UdpSink\""
param *.host11*.app[0].localPort 1500
param *.host12*.numApps 1
param *.host12*.app[0].typename "\"UdpSink\""
param *.host12*.app[0].localPort 1500
param *.host13*.numApps 1
param *.host13*.app[0].typename "\"UdpSink\""
param *.host13*.app[0].localPort 1500
param *.host14*.numApps 1
param *.host14*.app[0].typename "\"UdpSink\""
param *.host14*.app[0].localPort 1500
param *.host15*.numApps 1
param *.host15*.app[0].typename "\"UdpSink\""
param *.host15*.app[0].localPort 1500
param *.host16*.numApps 1
param *.host16*.app[0].typename "\"UdpSink\""
param *.host16*.app[0].localPort 1500
param *.host17*.numApps 1
param *.host17*.app[0].typename "\"UdpSink\""
param *.host17*.app[0].localPort 1500
param *.host18*.numApps 1
param *.host18*.app[0].typename "\"UdpSink\""
param *.host18*.app[0].localPort 1500
param *.host19*.numApps 1
param *.host19*.app[0].typename "\"UdpSink\""
param *.host19*.app[0].localPort 1500
param *.host20*.numApps 1
param *.host20*.app[0].typename "\"UdpSink\""
param *.host20*.app[0].localPort 1500
param *.host21*.numApps 1
param *.host21*.app[0].typename "\"UdpSink\""
param *.host21*.app[0].localPort 1500
param *.host22*.numApps 1
param *.host22*.app[0].typename "\"UdpSink\""
param *.host22*.app[0].localPort 1500
param *.host23*.numApps 1
param *.host23*.app[0].typename "\"UdpSink\""
param *.host23*.app[0].localPort 1500
param *.host24*.numApps 1
param *.host24*.app[0].typename "\"UdpSink\""
param *.host24*.app[0].localPort 1500
param *.host25*.numApps 1
param *.host25*.app[0].typename "\"UdpSink\""
param *.host25*.app[0].localPort 1500
param *.host26*.numApps 1
param *.host26*.app[0].typename "\"UdpSink\""
param *.host26*.app[0].localPort 1500
param *.host27*.numApps 1
param *.host27*.app[0].typename "\"UdpSink\""
param *.host27*.app[0].localPort 1500
param *.host28*.numApps 1
param *.host28*.app[0].typename "\"UdpSink\""
param *.host28*.app[0].localPort 1500
param *.host29*.numApps 1
param *.host29*.app[0].typename "\"UdpSink\""
param *.host29*.app[0].localPort 1500
param *.host30*.numApps 1
param *.host30*.app[0].typename "\"UdpSink\""
param *.host30*.app[0].localPort 1500
param *.host31*.numApps 1
param *.host31*.app[0].typename "\"UdpSink\""
param *.host31*.app[0].localPort 1500
param *.host32*.numApps 1
param *.host32*.app[0].typename "\"UdpSink\""
param *.host32*.app[0].localPort 1500
param *.host33*.numApps 1
param *.host33*.app[0].typename "\"UdpSink\""
param *.host33*.app[0].localPort 1500
param *.host34*.numApps 1
param *.host34*.app[0].typename "\"UdpSink\""
param *.host34*.app[0].localPort 1500
param *.host35*.numApps 1
param *.host35*.app[0].typename "\"UdpSink\""
param *.host35*.app[0].localPort 1500
param *.host36*.numApps 1
param *.host36*.app[0].typename "\"UdpSink\""
param *.host36*.app[0].localPort 1500
param *.host37*.numApps 1
param *.host37*.app[0].typename "\"UdpSink\""
param *.host37*.app[0].localPort 1500
param *.host38*.numApps 1
param *.host38*.app[0].typename "\"UdpSink\""
param *.host38*.app[0].localPort 1500
param *.host39*.numApps 1
param *.host39*.app[0].typename "\"UdpSink\""
param *.host39*.app[0].localPort 1500
param *.host40*.numApps 1
param *.host40*.app[0].typename "\"UdpSink\""
param *.host40*.app[0].localPort 1500
param *.host41*.numApps 1
param *.host41*.app[0].typename "\"UdpSink\""
param *.host41*.app[0].localPort 1500
param *.host42*.numApps 1
param *.host42*.app[0].typename "\"UdpSink\""
param *.host42*.app[0].localPort 1500
param *.host43*.numApps 1
param *.host43*.app[0].typename "\"UdpSink\""
param *.host43*.app[0].localPort 1500
param *.host44*.numApps 1
param *.host44*.app[0].typename "\"UdpSink\""
param *.host44*.app[0].localPort 1500
param *.host45*.numApps 1
param *.host45*.app[0].typename "\"UdpSink\""
param *.host45*.app[0].localPort 1500
param *.host46*.numApps 1
param *.host46*.app[0].typename "\"UdpSink\""
param *.host46*.app[0].localPort 1500
param *.host47*.numApps 1
param *.host47*.app[0].typename "\"UdpSink\""
param *.host47*.app[0].localPort 1500
param *.host48*.numApps 1
param *.host48*.app[0].typename "\"UdpSink\""
param *.host48*.app[0].localPort 1500
param *.host49*.numApps 1
param *.host49*.app[0].typename "\"UdpSink\""
param *.host49*.app[0].localPort 1500
param *.host50*.numApps 1
param *.host50*.app[0].typename "\"UdpSink\""
param *.host50*.app[0].localPort 1500
param *.host51*.numApps 1
param *.host51*.app[0].typename "\"UdpSink\""
param *.host51*.app[0].localPort 1500
param *.host53*.numApps 1
param *.host53*.app[0].typename "\"UdpSink\""
param *.host53*.app[0].localPort 1500
param *.host54*.numApps 1
param *.host54*.app[0].typename "\"UdpSink\""
param *.host54*.app[0].localPort 1500
param *.host*.numApps 1
param *.host*.app[0].typename "\"UdpSink\""
param *.host*.app[0].localPort 1500
param *.host55*.numApps 1
param *.host55*.app[0].typename "\"UdpSink\""
param *.host55*.app[0].localPort 1500
param *.host56*.numApps 1
param *.host56*.app[0].typename "\"UdpSink\""
param *.host56*.app[0].localPort 1500
param *.host57*.numApps 1
param *.host57*.app[0].typename "\"UdpSink\""
param *.host57*.app[0].localPort 1500
param *.host58*.numApps 1
param *.host58*.app[0].typename "\"UdpSink\""
param *.host58*.app[0].localPort 1500
param *.host59*.numApps 1
param *.host59*.app[0].typename "\"UdpSink\""
param *.host59*.app[0].localPort 1500
param *.host60*.numApps 1
param *.host60*.app[0].typename "\"UdpSink\""
param *.host60*.app[0].localPort 1500
param *.host61*.numApps 1
param *.host61*.app[0].typename "\"UdpSink\""
param *.host61*.app[0].localPort 1500
param *.host62*.numApps 1
param *.host62*.app[0].typename "\"UdpSink\""
param *.host62*.app[0].localPort 1500
param *.host63*.numApps 1
param *.host63*.app[0].typename "\"UdpSink\""
param *.host63*.app[0].localPort 1500
param *.host64*.numApps 1
param *.host64*.app[0].typename "\"UdpSink\""
param *.host64*.app[0].localPort 1500
param *.host65*.numApps 1
param *.host65*.app[0].typename "\"UdpSink\""
param *.host65*.app[0].localPort 1500
param *.host66*.numApps 1
param *.host66*.app[0].typename "\"UdpSink\""
param *.host66*.app[0].localPort 1500
param *.host67*.numApps 1
param *.host67*.app[0].typename "\"UdpSink\""
param *.host67*.app[0].localPort 1500
param *.host68*.numApps 1
param *.host68*.app[0].typename "\"UdpSink\""
param *.host68*.app[0].localPort 1500
param *.host69*.numApps 1
param *.host69*.app[0].typename "\"UdpSink\""
param *.host69*.app[0].localPort 1500
param *.host70*.numApps 1
param *.host70*.app[0].typename "\"UdpSink\""
param *.host70*.app[0].localPort 1500
param *.host71*.numApps 1
param *.host71*.app[0].typename "\"UdpSink\""
param *.host71*.app[0].localPort 1500
param *.host72*.numApps 1
param *.host72*.app[0].typename "\"UdpSink\""
param *.host72*.app[0].localPort 1500
param *.host73*.numApps 1
param *.host73*.app[0].typename "\"UdpSink\""
param *.host73*.app[0].localPort 1500
param *.host74*.numApps 1
param *.host74*.app[0].typename "\"UdpSink\""
param *.host74*.app[0].localPort 1500
param *.host75*.numApps 1
param *.host75*.app[0].typename "\"UdpSink\""
param *.host75*.app[0].localPort 1500
param *.host76*.numApps 1
param *.host76*.app[0].typename "\"UdpSink\""
param *.host76*.app[0].localPort 1500
param *.host77*.numApps 1
param *.host77*.app[0].typename "\"UdpSink\""
param *.host77*.app[0].localPort 1500
param *.host78*.numApps 1
param *.host78*.app[0].typename "\"UdpSink\""
param *.host78*.app[0].localPort 1500
param *.host79*.numApps 1
param *.host79*.app[0].typename "\"UdpSink\""
param *.host79*.app[0].localPort 1500
param *.host80*.numApps 1
param *.host80*.app[0].typename "\"UdpSink\""
param *.host80*.app[0].localPort 1500
param *.host81*.numApps 1
param *.host81*.app[0].typename "\"UdpSink\""
param *.host81*.app[0].localPort 1500
param *.host82*.numApps 1
param *.host82*.app[0].typename "\"UdpSink\""
param *.host82*.app[0].localPort 1500
param *.host83*.numApps 1
param *.host83*.app[0].typename "\"UdpSink\""
param *.host83*.app[0].localPort 1500
param *.host84*.numApps 1
param *.host84*.app[0].typename "\"UdpSink\""
param *.host84*.app[0].localPort 1500
param *.host85*.numApps 1
param *.host85*.app[0].typename "\"UdpSink\""
param *.host85*.app[0].localPort 1500
param *.host86*.numApps 1
param *.host86*.app[0].typename "\"UdpSink\""
param *.host86*.app[0].localPort 1500
param *.host87*.numApps 1
param *.host87*.app[0].typename "\"UdpSink\""
param *.host87*.app[0].localPort 1500
param *.host88*.numApps 1
param *.host88*.app[0].typename "\"UdpSink\""
param *.host88*.app[0].localPort 1500
param *.host89*.numApps 1
param *.host89*.app[0].typename "\"UdpSink\""
param *.host89*.app[0].localPort 1500
param *.host90*.numApps 1
param *.host90*.app[0].typename "\"UdpSink\""
param *.host90*.app[0].localPort 1500
param *.host91*.numApps 1
param *.host91*.app[0].typename "\"UdpSink\""
param *.host91*.app[0].localPort 1500
param *.host92*.numApps 1
param *.host92*.app[0].typename "\"UdpSink\""
param *.host92*.app[0].localPort 1500
param *.host93*.numApps 1
param *.host93*.app[0].typename "\"UdpSink\""
param *.host93*.app[0].localPort 1500
param *.host94*.numApps 1
param *.host94*.app[0].typename "\"UdpSink\""
param *.host94*.app[0].localPort 1500
param *.host95*.numApps 1
param *.host95*.app[0].typename "\"UdpSink\""
param *.host95*.app[0].localPort 1500
param *.host96*.numApps 1
param *.host96*.app[0].typename "\"UdpSink\""
param *.host96*.app[0].localPort 1500
param *.hostA.wlan[0].radio.displayCommunicationRange true
param *.host*.wlan[0].typename "\"AckingWirelessInterface\""
param *.host*.wlan[0].mac.useAck false
param *.host*.wlan[0].mac.fullDuplex false
param *.host*.wlan[0].radio.transmitter.communicationRange 1000m
param *.host*.wlan[0].radio.receiver.ignoreInterference true
param *.host*.wlan[0].mac.headerLength 23B
param *.host*.**.bitrate 10Mbps
param *.visualizer.sceneVisualizer.descriptionFigure "\"title\""
param *.visualizer.mediumVisualizer.displaySignals true
param *.visualizer.physicalLinkVisualizer.displayLinks true
param *.visualizer.physicalLinkVisualizer.packetFilter "\"UDPData*\""

vector 0 Wifi2.hostA.wlan[0].radio radioMode:vector ETV
attr interpolationmode sample-hold
attr source radioModeChanged
attr title "Radio mode, vector"
vector 1 Wifi2.hostB.wlan[0].radio radioMode:vector ETV
attr interpolationmode sample-hold
attr source radioModeChanged
attr title "Radio mode, vector"
vector 2 Wifi2.hostC.wlan[0].radio radioMode:vector ETV
attr interpolationmode sample-hold
attr source radioModeChanged
attr title "Radio mode, vector"
vector 3 Wifi2.hostD.wlan[0].radio radioMode:vector ETV
attr interpolationmode sample-hold
attr source radioModeChanged
attr title "Radio mode, vector"
vector 4 Wifi2.host5.wlan[0].radio radioMode:vector ETV
attr interpolationmode sample-hold
attr source radioModeChanged
attr title "Radio mode, vector"
vector 5 Wifi2.host6.wlan[0].radio radioMode:vector ETV
attr interpolationmode sample-hold
attr source radioModeChanged
attr title "Radio mode, vector"
vector 6 Wifi2.host7.wlan[0].radio radioMode:vector ETV
attr interpolationmode sample-hold
attr source radioModeChanged
attr title "Radio mode, vector"
vector 7 Wifi2.host8.wlan[0].radio radioMode:vector ETV
attr interpolationmode sample-hold
attr source radioModeChanged
attr title "Radio mode, vector"
vector 8 Wifi2.host9.wlan[0].radio radioMode:vector ETV
attr interpolationmode sample-hold
attr source radioModeChanged
attr title "Radio mode, vector"
vector 9 Wifi2.host10.wlan[0].radio radioMode:vector ETV
attr interpolationmode sample-hold
attr source radioModeChanged
attr title "Radio mode, vector"
vector 10 Wifi2.host11.wlan[0].radio radioMode:vector ETV
attr interpolationmode sample-hold
attr source radioModeChanged
attr title "Radio mode, vector"
vector 11 Wifi2.host12.wlan[0].radio radioMode:vector ETV
attr interpolationmode sample-hold
attr source radioModeChanged
attr title "Radio mode, vector"
vector 12 Wifi2.host13.wlan[0].radio radioMode:vector ETV
attr interpolationmode sample-hold
attr source radioModeChanged
attr title "Radio mode, vector"
vector 13 Wifi2.host14.wlan[0].radio radioMode:vector ETV
attr interpolationmode sample-hold
attr source radioModeChanged
attr title "Radio mode, vector"
vector 14 Wifi2.host15.wlan[0].radio radioMode:vector ETV
attr interpolationmode sample-hold
attr source radioModeChanged
attr title "Radio mode, vector"
vector 15 Wifi2.host16.wlan[0].radio radioMode:vector ETV
attr interpolationmode sample-hold
attr source radioModeChanged
attr title "Radio mode, vector"
vector 16 Wifi2.host17.wlan[0].radio radioMode:vector ETV
attr interpolationmode sample-hold
attr source radioModeChanged
attr title "Radio mode, vector"
vector 17 Wifi2.host18.wlan[0].radio radioMode:vector ETV
attr interpolationmode sample-hold
attr source radioModeChanged
attr title "Radio mode, vector"
vector 18 Wifi2.host19.wlan[0].radio radioMode:vector ETV
attr interpolationmode sample-hold
attr source radioModeChanged
attr title "Radio mode, vector"
vector 19 Wifi2.host20.wlan[0].radio radioMode:vector ETV
attr interpolationmode sample-hold
attr source radioModeChanged
attr title "Radio mode, vector"
vector 20 Wifi2.host21.wlan[0].radio radioMode:vector ETV
attr interpolationmode sample-hold
attr source radioModeChanged
attr title "Radio mode, vector"
vector 21 Wifi2.host22.wlan[0].radio radioMode:vector ETV
attr interpolationmode sample-hold
attr source radioModeChanged
attr title "Radio mode, vector"
vector 22 Wifi2.host23.wlan[0].radio radioMode:vector ETV
attr interpolationmode sample-hold
attr source radioModeChanged
attr title "Radio mode, vector"
vector 23 Wifi2.host24.wlan[0].radio radioMode:vector ETV
attr interpolationmode sample-hold
attr source radioModeChanged
attr title "Radio mode, vector"
vector 24 Wifi2.host25.wlan[0].radio radioMode:vector ETV
attr interpolationmode sample-hold
attr source radioModeChanged
attr title "Radio mode, vector"
vector 25 Wifi2.host26.wlan[0].radio radioMode:vector ETV
attr interpolationmode sample-hold
attr source radioModeChanged
attr title "Radio mode, vector"
vector 26 Wifi2.host27.wlan[0].radio radioMode:vector ETV
attr interpolationmode sample-hold
attr source radioModeChanged
attr title "Radio mode, vector"
vector 27 Wifi2.host28.wlan[0].radio radioMode:vector ETV
attr interpolationmode sample-hold
attr source radioModeChanged
attr title "Radio mode, vector"
vector 28 Wifi2.host29.wlan[0].radio radioMode:vector ETV
attr interpolationmode sample-hold
attr source radioModeChanged
attr title "Radio mode, vector"
vector 29 Wifi2.host30.wlan[0].radio radioMode:vector ETV
attr interpolationmode sample-hold
attr source radioModeChanged
attr title "Radio mode, vector"
vector 30 Wifi2.host31.wlan[0].radio radioMode:vector ETV
attr interpolationmode sample-hold
attr source radioModeChanged
attr title "Radio mode, vector"
vector 31 Wifi2.host32.wlan[0].radio radioMode:vector ETV
attr interpolationmode sample-hold
attr source radioModeChanged
attr title "Radio mode, vector"
vector 32 Wifi2.host33.wlan[0].radio radioMode:vector ETV
attr interpolationmode sample-hold
attr source radioModeChanged
attr title "Radio mode, vector"
vector 33 Wifi2.host34.wlan[0].radio radioMode:vector ETV
attr interpolationmode sample-hold
attr source radioModeChanged
attr title "Radio mode, vector"
vector 34 Wifi2.host35.wlan[0].radio radioMode:vector ETV
attr interpolationmode sample-hold
attr source radioModeChanged
attr title "Radio mode, vector"
vector 35 Wifi2.host36.wlan[0].radio radioMode:vector ETV
attr interpolationmode sample-hold
attr source radioModeChanged
attr title "Radio mode, vector"
vector 36 Wifi2.host37.wlan[0].radio radioMode:vector ETV
attr interpolationmode sample-hold
attr source radioModeChanged
attr title "Radio mode, vector"
vector 37 Wifi2.host38.wlan[0].radio radioMode:vector ETV
attr interpolationmode sample-hold
attr source radioModeChanged
attr title "Radio mode, vector"
vector 38 Wifi2.host39.wlan[0].radio radioMode:vector ETV
attr interpolationmode sample-hold
attr source radioModeChanged
attr title "Radio mode, vector"
vector 39 Wifi2.host40.wlan[0].radio radioMode:vector ETV
attr interpolationmode sample-hold
attr source radioModeChanged
attr title "Radio mode, vector"
vector 40 Wifi2.host41.wlan[0].radio radioMode:vector ETV
attr interpolationmode sample-hold
attr source radioModeChanged
attr title "Radio mode, vector"
vector 41 Wifi2.host42.wlan[0].radio radioMode:vector ETV
attr interpolationmode sample-hold
attr source radioModeChanged
attr title "Radio mode, vector"
vector 42 Wifi2.host43.wlan[0].radio radioMode:vector ETV
attr interpolationmode sample-hold
attr source radioModeChanged
attr title "Radio mode, vector"
vector 43 Wifi2.host44.wlan[0].radio radioMode:vector ETV
attr interpolationmode sample-hold
attr source radioModeChanged
attr title "Radio mode, vector"
vector 44 Wifi2.host45.wlan[0].radio radioMode:vector ETV
attr interpolationmode sample-hold
attr source radioModeChanged
attr title "Radio mode, vector"
vector 45 Wifi2.host46.wlan[0].radio radioMode:vector ETV
attr interpolationmode sample-hold
attr source radioModeChanged
attr title "Radio mode, vector"
vector 46 Wifi2.host47.wlan[0].radio radioMode:vector ETV
attr interpolationmode sample-hold
attr source radioModeChanged
attr title "Radio mode, vector"
vector 47 Wifi2.host48.wlan[0].radio radioMode:vector ETV
attr interpolationmode sample-hold
attr source radioModeChanged
attr title "Radio mode, vector"
vector 48 Wifi2.host49.wlan[0].radio radioMode:vector ETV
attr interpolationmode sample-hold
attr source radioModeChanged
attr title "Radio mode, vector"
vector 49 Wifi2.host50.wlan[0].radio radioMode:vector ETV
attr interpolationmode sample-hold
attr source radioModeChanged
attr title "Radio mode, vector"
vector 50 Wifi2.host51.wlan[0].radio radioMode:vector ETV
attr interpolationmode sample-hold
attr source radioModeChanged
attr title "Radio mode, vector"
vector 51 Wifi2.host52.wlan[0].radio radioMode:vector ETV
attr interpolationmode sample-hold
attr source radioModeChanged
attr title "Radio mode, vector"
vector 52 Wifi2.host53.wlan[0].radio radioMode:vector ETV
attr interpolationmode sample-hold
attr source radioModeChanged
attr title "Radio mode, vector"
vector 53 Wifi2.host54.wlan[0].radio radioMode:vector ETV
attr interpolationmode sample-hold
attr source radioModeChanged
attr title "Radio mode, vector"
vector 54 Wifi2.host55.wlan[0].radio radioMode:vector ETV
attr interpolationmode sample-hold
attr source radioModeChanged
attr title "Radio mode, vector"
vector 55 Wifi2.host56.wlan[0].radio radioMode:vector ETV
attr interpolationmode sample-hold
attr source radioModeChanged
attr title "Radio mode, vector"
vector 56 Wifi2.host57.wlan[0].radio radioMode:vector ETV
attr interpolationmode sample-hold
attr source radioModeChanged
attr title "Radio mode, vector"
vector 57 Wifi2.host58.wlan[0].radio radioMode:vector ETV
attr interpolationmode sample-hold
attr source radioModeChanged
attr title "Radio mode, vector"
vector 58 Wifi2.host59.wlan[0].radio radioMode:vector ETV
attr interpolationmode sample-hold
attr source radioModeChanged
attr title "Radio mode, vector"
vector 59 Wifi2.host60.wlan[0].radio radioMode:vector ETV
attr interpolationmode sample-hold
attr source radioModeChanged
attr title "Radio mode, vector"
vector 60 Wifi2.host61.wlan[0].radio radioMode:vector ETV
attr interpolationmode sample-hold
attr source radioModeChanged
attr title "Radio mode, vector"
vector 61 Wifi2.host62.wlan[0].radio radioMode:vector ETV
attr interpolationmode sample-hold
attr source radioModeChanged
attr title "Radio mode, vector"
vector 62 Wifi2.host63.wlan[0].radio radioMode:vector ETV
attr interpolationmode sample-hold
attr source radioModeChanged
attr title "Radio mode, vector"
vector 63 Wifi2.host64.wlan[0].radio radioMode:vector ETV
attr interpolationmode sample-hold
attr source radioModeChanged
attr title "Radio mode, vector"
vector 64 Wifi2.host65.wlan[0].radio radioMode:vector ETV
attr interpolationmode sample-hold
attr source radioModeChanged
attr title "Radio mode, vector"
vector 65 Wifi2.host66.wlan[0].radio radioMode:vector ETV
attr interpolationmode sample-hold
attr source radioModeChanged
attr title "Radio mode, vector"
vector 66 Wifi2.host67.wlan[0].radio radioMode:vector ETV
attr interpolationmode sample-hold
attr source radioModeChanged
attr title "Radio mode, vector"
vector 67 Wifi2.host68.wlan[0].radio radioMode:vector ETV
attr interpolationmode sample-hold
attr source radioModeChanged
attr title "Radio mode, vector"
vector 68 Wifi2.host69.wlan[0].radio radioMode:vector ETV
attr interpolationmode sample-hold
attr source radioModeChanged
attr title "Radio mode, vector"
vector 69 Wifi2.host70.wlan[0].radio radioMode:vector ETV
attr interpolationmode sample-hold
attr source radioModeChanged
attr title "Radio mode, vector"
vector 70 Wifi2.host71.wlan[0].radio radioMode:vector ETV
attr interpolationmode sample-hold
attr source radioModeChanged
attr title "Radio mode, vector"
vector 71 Wifi2.host72.wlan[0].radio radioMode:vector ETV
attr interpolationmode sample-hold
attr source radioModeChanged
attr title "Radio mode, vector"
vector 72 Wifi2.host73.wlan[0].radio radioMode:vector ETV
attr interpolationmode sample-hold
attr source radioModeChanged
attr title "Radio mode, vector"
vector 73 Wifi2.host74.wlan[0].radio radioMode:vector ETV
attr interpolationmode sample-hold
attr source radioModeChanged
attr title "Radio mode, vector"
vector 74 Wifi2.host75.wlan[0].radio radioMode:vector ETV
attr interpolationmode sample-hold
attr source radioModeChanged
attr title "Radio mode, vector"
vector 75 Wifi2.host76.wlan[0].radio radioMode:vector ETV
attr interpolationmode sample-hold
attr source radioModeChanged
attr title "Radio mode, vector"
vector 76 Wifi2.host77.wlan[0].radio radioMode:vector ETV
attr interpolationmode sample-hold
attr source radioModeChanged
attr title "Radio mode, vector"
vector 77 Wifi2.host78.wlan[0].radio radioMode:vector ETV
attr interpolationmode sample-hold
attr source radioModeChanged
attr title "Radio mode, vector"
vector 78 Wifi2.host79.wlan[0].radio radioMode:vector ETV
attr interpolationmode sample-hold
attr source radioModeChanged
attr title "Radio mode, vector"
vector 79 Wifi2.host80.wlan[0].radio radioMode:vector ETV
attr interpolationmode sample-hold
attr source radioModeChanged
attr title "Radio mode, vector"
vector 80 Wifi2.host81.wlan[0].radio radioMode:vector ETV
attr interpolationmode sample-hold
attr source radioModeChanged
attr title "Radio mode, vector"
vector 81 Wifi2.host82.wlan[0].radio radioMode:vector ETV
attr interpolationmode sample-hold
attr source radioModeChanged
attr title "Radio mode, vector"
vector 82 Wifi2.host83.wlan[0].radio radioMode:vector ETV
attr interpolationmode sample-hold
attr source radioModeChanged
attr title "Radio mode, vector"
vector 83 Wifi2.host84.wlan[0].radio radioMode:vector ETV
attr interpolationmode sample-hold
attr source radioModeChanged
attr title "Radio mode, vector"
vector 84 Wifi2.host85.wlan[0].radio radioMode:vector ETV
attr interpolationmode sample-hold
attr source radioModeChanged
attr title "Radio mode, vector"
vector 85 Wifi2.host86.wlan[0].radio radioMode:vector ETV
attr interpolationmode sample-hold
attr source radioModeChanged
attr title "Radio mode, vector"
vector 86 Wifi2.host87.wlan[0].radio radioMode:vector ETV
attr interpolationmode sample-hold
attr source radioModeChanged
attr title "Radio mode, vector"
vector 87 Wifi2.host88.wlan[0].radio radioMode:vector ETV
attr interpolationmode sample-hold
attr source radioModeChanged
attr title "Radio mode, vector"
vector 88 Wifi2.host89.wlan[0].radio radioMode:vector ETV
attr interpolationmode sample-hold
attr source radioModeChanged
attr title "Radio mode, vector"
vector 89 Wifi2.host90.wlan[0].radio radioMode:vector ETV
attr interpolationmode sample-hold
attr source radioModeChanged
attr title "Radio mode, vector"
vector 90 Wifi2.host91.wlan[0].radio radioMode:vector ETV
attr interpolationmode sample-hold
attr source radioModeChanged
attr title "Radio mode, vector"
vector 91 Wifi2.host92.wlan[0].radio radioMode:vector ETV
attr interpolationmode sample-hold
attr source radioModeChanged
attr title "Radio mode, vector"
vector 92 Wifi2.host93.wlan[0].radio radioMode:vector ETV
attr interpolationmode sample-hold
attr source radioModeChanged
attr title "Radio mode, vector"
vector 93 Wifi2.host94.wlan[0].radio radioMode:vector ETV
attr interpolationmode sample-hold
attr source radioModeChanged
attr title "Radio mode, vector"
vector 94 Wifi2.host95.wlan[0].radio radioMode:vector ETV
attr interpolationmode sample-hold
attr source radioModeChanged
attr title "Radio mode, vector"
vector 95 Wifi2.host96.wlan[0].radio radioMode:vector ETV
attr interpolationmode sample-hold
attr source radioModeChanged
attr title "Radio mode, vector"
vector 96 Wifi2.hostA.wlan[0].radio receptionState:vector ETV
attr interpolationmode sample-hold
attr source receptionStateChanged
attr title "Radio reception state, vector"
vector 97 Wifi2.hostB.wlan[0].radio receptionState:vector ETV
attr interpolationmode sample-hold
attr source receptionStateChanged
attr title "Radio reception state, vector"
vector 98 Wifi2.hostC.wlan[0].radio receptionState:vector ETV
attr interpolationmode sample-hold
attr source receptionStateChanged
attr title "Radio reception state, vector"
vector 99 Wifi2.hostD.wlan[0].radio receptionState:vector ETV
attr interpolationmode sample-hold
attr source receptionStateChanged
attr title "Radio reception state, vector"
vector 100 Wifi2.host5.wlan[0].radio receptionState:vector ETV
attr interpolationmode sample-hold
attr source receptionStateChanged
attr title "Radio reception state, vector"
vector 101 Wifi2.host6.wlan[0].radio receptionState:vector ETV
attr interpolationmode sample-hold
attr source receptionStateChanged
attr title "Radio reception state, vector"
vector 102 Wifi2.host7.wlan[0].radio receptionState:vector ETV
attr interpolationmode sample-hold
attr source receptionStateChanged
attr title "Radio reception state, vector"
vector 103 Wifi2.host8.wlan[0].radio receptionState:vector ETV
attr interpolationmode sample-hold
attr source receptionStateChanged
attr title "Radio reception state, vector"
vector 104 Wifi2.host9.wlan[0].radio receptionState:vector ETV
attr interpolationmode sample-hold
attr source receptionStateChanged
attr title "Radio reception state, vector"
vector 105 Wifi2.host10.wlan[0].radio receptionState:vector ETV
attr interpolationmode sample-hold
attr source receptionStateChanged
attr title "Radio reception state, vector"
vector 106 Wifi2.host11.wlan[0].radio receptionState:vector ETV
attr interpolationmode sample-hold
attr source receptionStateChanged
attr title "Radio reception state, vector"
vector 107 Wifi2.host12.wlan[0].radio receptionState:vector ETV
attr interpolationmode sample-hold
attr source receptionStateChanged
attr title "Radio reception state, vector"
vector 108 Wifi2.host13.wlan[0].radio receptionState:vector ETV
attr interpolationmode sample-hold
attr source receptionStateChanged
attr title "Radio reception state, vector"
vector 109 Wifi2.host14.wlan[0].radio receptionState:vector ETV
attr interpolationmode sample-hold
attr source receptionStateChanged
attr title "Radio reception state, vector"
vector 110 Wifi2.host15.wlan[0].radio receptionState:vector ETV
attr interpolationmode sample-hold
attr source receptionStateChanged
attr title "Radio reception state, vector"
vector 111 Wifi2.host16.wlan[0].radio receptionState:vector ETV
attr interpolationmode sample-hold
attr source receptionStateChanged
attr title "Radio reception state, vector"
vector 112 Wifi2.host17.wlan[0].radio receptionState:vector ETV
attr interpolationmode sample-hold
attr source receptionStateChanged
attr title "Radio reception state, vector"
vector 113 Wifi2.host18.wlan[0].radio receptionState:vector ETV
attr interpolationmode sample-hold
attr source receptionStateChanged
attr title "Radio reception state, vector"
vector 114 Wifi2.host19.wlan[0].radio receptionState:vector ETV
attr interpolationmode sample-hold
attr source receptionStateChanged
attr title "Radio reception state, vector"
vector 115 Wifi2.host20.wlan[0].radio receptionState:vector ETV
attr interpolationmode sample-hold
attr source receptionStateChanged
attr title "Radio reception state, vector"
vector 116 Wifi2.host21.wlan[0].radio receptionState:vector ETV
attr interpolationmode sample-hold
attr source receptionStateChanged
attr title "Radio reception state, vector"
vector 117 Wifi2.host22.wlan[0].radio receptionState:vector ETV
attr interpolationmode sample-hold
attr source receptionStateChanged
attr title "Radio reception state, vector"
vector 118 Wifi2.host23.wlan[0].radio receptionState:vector ETV
attr interpolationmode sample-hold
attr source receptionStateChanged
attr title "Radio reception state, vector"
vector 119 Wifi2.host24.wlan[0].radio receptionState:vector ETV
attr interpolationmode sample-hold
attr source receptionStateChanged
attr title "Radio reception state, vector"
vector 120 Wifi2.host25.wlan[0].radio receptionState:vector ETV
attr interpolationmode sample-hold
attr source receptionStateChanged
attr title "Radio reception state, vector"
vector 121 Wifi2.host26.wlan[0].radio receptionState:vector ETV
attr interpolationmode sample-hold
attr source receptionStateChanged
attr title "Radio reception state, vector"
vector 122 Wifi2.host27.wlan[0].radio receptionState:vector ETV
attr interpolationmode sample-hold
attr source receptionStateChanged
attr title "Radio reception state, vector"
vector 123 Wifi2.host28.wlan[0].radio receptionState:vector ETV
attr interpolationmode sample-hold
attr source receptionStateChanged
attr title "Radio reception state, vector"
vector 124 Wifi2.host29.wlan[0].radio receptionState:vector ETV
attr interpolationmode sample-hold
attr source receptionStateChanged
attr title "Radio reception state, vector"
vector 125 Wifi2.host30.wlan[0].radio receptionState:vector ETV
attr interpolationmode sample-hold
attr source receptionStateChanged
attr title "Radio reception state, vector"
vector 126 Wifi2.host31.wlan[0].radio receptionState:vector ETV
attr interpolationmode sample-hold
attr source receptionStateChanged
attr title "Radio reception state, vector"
vector 127 Wifi2.host32.wlan[0].radio receptionState:vector ETV
attr interpolationmode sample-hold
attr source receptionStateChanged
attr title "Radio reception state, vector"
vector 128 Wifi2.host33.wlan[0].radio receptionState:vector ETV
attr interpolationmode sample-hold
attr source receptionStateChanged
attr title "Radio reception state, vector"
vector 129 Wifi2.host34.wlan[0].radio receptionState:vector ETV
attr interpolationmode sample-hold
attr source receptionStateChanged
attr title "Radio reception state, vector"
vector 130 Wifi2.host35.wlan[0].radio receptionState:vector ETV
attr interpolationmode sample-hold
attr source receptionStateChanged
attr title "Radio reception state, vector"
vector 131 Wifi2.host36.wlan[0].radio receptionState:vector ETV
attr interpolationmode sample-hold
attr source receptionStateChanged
attr title "Radio reception state, vector"
vector 132 Wifi2.host37.wlan[0].radio receptionState:vector ETV
attr interpolationmode sample-hold
attr source receptionStateChanged
attr title "Radio reception state, vector"
vector 133 Wifi2.host38.wlan[0].radio receptionState:vector ETV
attr interpolationmode sample-hold
attr source receptionStateChanged
attr title "Radio reception state, vector"
vector 134 Wifi2.host39.wlan[0].radio receptionState:vector ETV
attr interpolationmode sample-hold
attr source receptionStateChanged
attr title "Radio reception state, vector"
vector 135 Wifi2.host40.wlan[0].radio receptionState:vector ETV
attr interpolationmode sample-hold
attr source receptionStateChanged
attr title "Radio reception state, vector"
vector 136 Wifi2.host41.wlan[0].radio receptionState:vector ETV
attr interpolationmode sample-hold
attr source receptionStateChanged
attr title "Radio reception state, vector"
vector 137 Wifi2.host42.wlan[0].radio receptionState:vector ETV
attr interpolationmode sample-hold
attr source receptionStateChanged
attr title "Radio reception state, vector"
vector 138 Wifi2.host43.wlan[0].radio receptionState:vector ETV
attr interpolationmode sample-hold
attr source receptionStateChanged
attr title "Radio reception state, vector"
vector 139 Wifi2.host44.wlan[0].radio receptionState:vector ETV
attr interpolationmode sample-hold
attr source receptionStateChanged
attr title "Radio reception state, vector"
vector 140 Wifi2.host45.wlan[0].radio receptionState:vector ETV
attr interpolationmode sample-hold
attr source receptionStateChanged
attr title "Radio reception state, vector"
vector 141 Wifi2.host46.wlan[0].radio receptionState:vector ETV
attr interpolationmode sample-hold
attr source receptionStateChanged
attr title "Radio reception state, vector"
vector 142 Wifi2.host47.wlan[0].radio receptionState:vector ETV
attr interpolationmode sample-hold
attr source receptionStateChanged
attr title "Radio reception state, vector"
vector 143 Wifi2.host48.wlan[0].radio receptionState:vector ETV
attr interpolationmode sample-hold
attr source receptionStateChanged
attr title "Radio reception state, vector"
vector 144 Wifi2.host49.wlan[0].radio receptionState:vector ETV
attr interpolationmode sample-hold
attr source receptionStateChanged
attr title "Radio reception state, vector"
vector 145 Wifi2.host50.wlan[0].radio receptionState:vector ETV
attr interpolationmode sample-hold
attr source receptionStateChanged
attr title "Radio reception state, vector"
vector 146 Wifi2.host51.wlan[0].radio receptionState:vector ETV
attr interpolationmode sample-hold
attr source receptionStateChanged
attr title "Radio reception state, vector"
vector 147 Wifi2.host52.wlan[0].radio receptionState:vector ETV
attr interpolationmode sample-hold
attr source receptionStateChanged
attr title "Radio reception state, vector"
vector 148 Wifi2.host53.wlan[0].radio receptionState:vector ETV
attr interpolationmode sample-hold
attr source receptionStateChanged
attr title "Radio reception state, vector"
vector 149 Wifi2.host54.wlan[0].radio receptionState:vector ETV
attr interpolationmode sample-hold
attr source receptionStateChanged
attr title "Radio reception state, vector"
vector 150 Wifi2.host55.wlan[0].radio receptionState:vector ETV
attr interpolationmode sample-hold
attr source receptionStateChanged
attr title "Radio reception state, vector"
vector 151 Wifi2.host56.wlan[0].radio receptionState:vector ETV
attr interpolationmode sample-hold
attr source receptionStateChanged
attr title "Radio reception state, vector"
vector 152 Wifi2.host57.wlan[0].radio receptionState:vector ETV
attr interpolationmode sample-hold
attr source receptionStateChanged
attr title "Radio reception state, vector"
vector 153 Wifi2.host58.wlan[0].radio receptionState:vector ETV
attr interpolationmode sample-hold
attr source receptionStateChanged
attr title "Radio reception state, vector"
vector 154 Wifi2.host59.wlan[0].radio receptionState:vector ETV
attr interpolationmode sample-hold
attr source receptionStateChanged
attr title "Radio reception state, vector"
vector 155 Wifi2.host60.wlan[0].radio receptionState:vector ETV
attr interpolationmode sample-hold
attr source receptionStateChanged
attr title "Radio reception state, vector"
vector 156 Wifi2.host61.wlan[0].radio receptionState:vector ETV
attr interpolationmode sample-hold
attr source receptionStateChanged
attr title "Radio reception state, vector"
vector 157 Wifi2.host62.wlan[0].radio receptionState:vector ETV
attr interpolationmode sample-hold
attr source receptionStateChanged
attr title "Radio reception state, vector"
vector 158 Wifi2.host63.wlan[0].radio receptionState:vector ETV
attr interpolationmode sample-hold
attr source receptionStateChanged
attr title "Radio reception state, vector"
vector 159 Wifi2.host64.wlan[0].radio receptionState:vector ETV
attr interpolationmode sample-hold
attr source receptionStateChanged
attr title "Radio reception state, vector"
vector 160 Wifi2.host65.wlan[0].radio receptionState:vector ETV
attr interpolationmode sample-hold
attr source receptionStateChanged
attr title "Radio reception state, vector"
vector 161 Wifi2.host66.wlan[0].radio receptionState:vector ETV
attr interpolationmode sample-hold
attr source receptionStateChanged
attr title "Radio reception state, vector"
vector 162 Wifi2.host67.wlan[0].radio receptionState:vector ETV
attr interpolationmode sample-hold
attr source receptionStateChanged
attr title "Radio reception state, vector"
vector 163 Wifi2.host68.wlan[0].radio receptionState:vector ETV
attr interpolationmode sample-hold
attr source receptionStateChanged
attr title "Radio reception state, vector"
vector 164 Wifi2.host69.wlan[0].radio receptionState:vector ETV
attr interpolationmode sample-hold
attr source receptionStateChanged
attr title "Radio reception state, vector"
vector 165 Wifi2.host70.wlan[0].radio receptionState:vector ETV
attr interpolationmode sample-hold
attr source receptionStateChanged
attr title "Radio reception state, vector"
vector 166 Wifi2.host71.wlan[0].radio receptionState:vector ETV
attr interpolationmode sample-hold
attr source receptionStateChanged
attr title "Radio reception state, vector"
vector 167 Wifi2.host72.wlan[0].radio receptionState:vector ETV
attr interpolationmode sample-hold
attr source receptionStateChanged
attr title "Radio reception state, vector"
vector 168 Wifi2.host73.wlan[0].radio receptionState:vector ETV
attr interpolationmode sample-hold
attr source receptionStateChanged
attr title "Radio reception state, vector"
vector 169 Wifi2.host74.wlan[0].radio receptionState:vector ETV
attr interpolationmode sample-hold
attr source receptionStateChanged
attr title "Radio reception state, vector"
vector 170 Wifi2.host75.wlan[0].radio receptionState:vector ETV
attr interpolationmode sample-hold
attr source receptionStateChanged
attr title "Radio reception state, vector"
vector 171 Wifi2.host76.wlan[0].radio receptionState:vector ETV
attr interpolationmode sample-hold
attr source receptionStateChanged
attr title "Radio reception state, vector"
vector 172 Wifi2.host77.wlan[0].radio receptionState:vector ETV
attr interpolationmode sample-hold
attr source receptionStateChanged
attr title "Radio reception state, vector"
vector 173 Wifi2.host78.wlan[0].radio receptionState:vector ETV
attr interpolationmode sample-hold
attr source receptionStateChanged
attr title "Radio reception state, vector"
vector 174 Wifi2.host79.wlan[0].radio receptionState:vector ETV
attr interpolationmode sample-hold
attr source receptionStateChanged
attr title "Radio reception state, vector"
vector 175 Wifi2.host80.wlan[0].radio receptionState:vector ETV
attr interpolationmode sample-hold
attr source receptionStateChanged
attr title "Radio reception state, vector"
vector 176 Wifi2.host81.wlan[0].radio receptionState:vector ETV
attr interpolationmode sample-hold
attr source receptionStateChanged
attr title "Radio reception state, vector"
vector 177 Wifi2.host82.wlan[0].radio receptionState:vector ETV
attr interpolationmode sample-hold
attr source receptionStateChanged
attr title "Radio reception state, vector"
vector 178 Wifi2.host83.wlan[0].radio receptionState:vector ETV
attr interpolationmode sample-hold
attr source receptionStateChanged
attr title "Radio reception state, vector"
vector 179 Wifi2.host84.wlan[0].radio receptionState:vector ETV
attr interpolationmode sample-hold
attr source receptionStateChanged
attr title "Radio reception state, vector"
vector 180 Wifi2.host85.wlan[0].radio receptionState:vector ETV
attr interpolationmode sample-hold
attr source receptionStateChanged
attr title "Radio reception state, vector"
vector 181 Wifi2.host86.wlan[0].radio receptionState:vector ETV
attr interpolationmode sample-hold
attr source receptionStateChanged
attr title "Radio reception state, vector"
vector 182 Wifi2.host87.wlan[0].radio receptionState:vector ETV
attr interpolationmode sample-hold
attr source receptionStateChanged
attr title "Radio reception state, vector"
vector 183 Wifi2.host88.wlan[0].radio receptionState:vector ETV
attr interpolationmode sample-hold
attr source receptionStateChanged
attr title "Radio reception state, vector"
vector 184 Wifi2.host89.wlan[0].radio receptionState:vector ETV
attr interpolationmode sample-hold
attr source receptionStateChanged
attr title "Radio reception state, vector"
vector 185 Wifi2.host90.wlan[0].radio receptionState:vector ETV
attr interpolationmode sample-hold
attr source receptionStateChanged
attr title "Radio reception state, vector"
vector 186 Wifi2.host91.wlan[0].radio receptionState:vector ETV
attr interpolationmode sample-hold
attr source receptionStateChanged
attr title "Radio reception state, vector"
vector 187 Wifi2.host92.wlan[0].radio receptionState:vector ETV
attr interpolationmode sample-hold
attr source receptionStateChanged
attr title "Radio reception state, vector"
vector 188 Wifi2.host93.wlan[0].radio receptionState:vector ETV
attr interpolationmode sample-hold
attr source receptionStateChanged
attr title "Radio reception state, vector"
vector 189 Wifi2.host94.wlan[0].radio receptionState:vector ETV
attr interpolationmode sample-hold
attr source receptionStateChanged
attr title "Radio reception state, vector"
vector 190 Wifi2.host95.wlan[0].radio receptionState:vector ETV
attr interpolationmode sample-hold
attr source receptionStateChanged
attr title "Radio reception state, vector"
vector 191 Wifi2.host96.wlan[0].radio receptionState:vector ETV
attr interpolationmode sample-hold
attr source receptionStateChanged
attr title "Radio reception state, vector"
vector 192 Wifi2.hostA.app[0] packetSent:vector(packetBytes) ETV
attr interpolationmode none
attr source packetSent
attr title "packets sent, vector(packetBytes)"
vector 193 Wifi2.hostA.udp packetSent:vector(packetBytes) ETV
attr interpolationmode none
attr source packetSent
attr title "packets sent, vector(packetBytes)"
vector 194 Wifi2.hostA.wlan[0].mac rcvdPkFromHl:vector(packetBytes) ETV
attr interpolationmode none
attr source packetReceivedFromUpper
attr title "packets received from higher layer, vector(packetBytes)"
vector 195 Wifi2.hostA.wlan[0].mac.queue packetPushed:vector(packetBytes) ETV
attr interpolationmode none
attr title "packet pushed, vector(packetBytes)"
vector 196 Wifi2.hostA.wlan[0].mac.queue queueLength:vector ETV
attr interpolationmode sample-hold
attr source "count(packetPushed) - count(packetPopped) - count(packetRemoved) - count(packetDropped)"
attr title "queue length, vector"
vector 197 Wifi2.hostA.wlan[0].mac.queue packetPopped:vector(packetBytes) ETV
attr interpolationmode none
attr title "packet popped, vector(packetBytes)"
vector 198 Wifi2.hostA.wlan[0].mac.queue queueingTime:vector ETV
attr interpolationmode none
attr source queueingTime(packetPopped)
attr title "queueing times, vector"
attr unit s
vector 199 Wifi2.hostA.wlan[0].radio transmissionState:vector ETV
attr interpolationmode sample-hold
attr source transmissionStateChanged
attr title "Radio transmission state, vector"
vector 200 Wifi2.hostA.wlan[0].mac sentDownPk:vector(packetBytes) ETV
attr interpolationmode none
attr source packetSentToLower
attr title "packets sent to lower layer, vector(packetBytes)"
vector 201 Wifi2.host48.wlan[0].mac rcvdPkFromLl:vector(packetBytes) ETV
attr interpolationmode none
attr source packetReceivedFromLower
attr title "packets received from lower layer, vector(packetBytes)"
vector 202 Wifi2.host48.wlan[0].mac packetDropNotAddressedToUs:vector(packetBytes) ETV
attr interpolationmode none
attr source packetDropReasonIsNotAddressedToUs(packetDropped)
attr title "packet drop: not addressed to us, vector(packetBytes)"
vector 203 Wifi2.host38.wlan[0].mac rcvdPkFromLl:vector(packetBytes) ETV
attr interpolationmode none
attr source packetReceivedFromLower
attr title "packets received from lower layer, vector(packetBytes)"
vector 204 Wifi2.host38.wlan[0].mac packetDropNotAddressedToUs:vector(packetBytes) ETV
attr interpolationmode none
attr source packetDropReasonIsNotAddressedToUs(packetDropped)
attr title "packet drop: not addressed to us, vector(packetBytes)"
vector 205 Wifi2.host34.wlan[0].mac rcvdPkFromLl:vector(packetBytes) ETV
attr interpolationmode none
attr source packetReceivedFromLower
attr title "packets received from lower layer, vector(packetBytes)"
vector 206 Wifi2.host34.wlan[0].mac packetDropNotAddressedToUs:vector(packetBytes) ETV
attr interpolationmode none
attr source packetDropReasonIsNotAddressedToUs(packetDropped)
attr title "packet drop: not addressed to us, vector(packetBytes)"
vector 207 Wifi2.host44.wlan[0].mac rcvdPkFromLl:vector(packetBytes) ETV
attr interpolationmode none
attr source packetReceivedFromLower
attr title "packets received from lower layer, vector(packetBytes)"
vector 208 Wifi2.host44.wlan[0].mac packetDropNotAddressedToUs:vector(packetBytes) ETV
attr interpolationmode none
attr source packetDropReasonIsNotAddressedToUs(packetDropped)
attr title "packet drop: not addressed to us, vector(packetBytes)"
vector 209 Wifi2.host5.wlan[0].mac rcvdPkFromLl:vector(packetBytes) ETV
attr interpolationmode none
attr source packetReceivedFromLower
attr title "packets received from lower layer, vector(packetBytes)"
vector 210 Wifi2.host5.wlan[0].mac packetDropNotAddressedToUs:vector(packetBytes) ETV
attr interpolationmode none
attr source packetDropReasonIsNotAddressedToUs(packetDropped)
attr title "packet drop: not addressed to us, vector(packetBytes)"
vector 211 Wifi2.host8.wlan[0].mac rcvdPkFromLl:vector(packetBytes) ETV
attr interpolationmode none
attr source packetReceivedFromLower
attr title "packets received from lower layer, vector(packetBytes)"
vector 212 Wifi2.host8.wlan[0].mac packetDropNotAddressedToUs:vector(packetBytes) ETV
attr interpolationmode none
attr source packetDropReasonIsNotAddressedToUs(packetDropped)
attr title "packet drop: not addressed to us, vector(packetBytes)"
vector 213 Wifi2.host16.wlan[0].mac rcvdPkFromLl:vector(packetBytes) ETV
attr interpolationmode none
attr source packetReceivedFromLower
attr title "packets received from lower layer, vector(packetBytes)"
vector 214 Wifi2.host16.wlan[0].mac packetDropNotAddressedToUs:vector(packetBytes) ETV
attr interpolationmode none
attr source packetDropReasonIsNotAddressedToUs(packetDropped)
attr title "packet drop: not addressed to us, vector(packetBytes)"
vector 215 Wifi2.host82.wlan[0].mac rcvdPkFromLl:vector(packetBytes) ETV
attr interpolationmode none
attr source packetReceivedFromLower
attr title "packets received from lower layer, vector(packetBytes)"
vector 216 Wifi2.host82.wlan[0].mac packetDropNotAddressedToUs:vector(packetBytes) ETV
attr interpolationmode none
attr source packetDropReasonIsNotAddressedToUs(packetDropped)
attr title "packet drop: not addressed to us, vector(packetBytes)"
vector 217 Wifi2.host42.wlan[0].mac rcvdPkFromLl:vector(packetBytes) ETV
attr interpolationmode none
attr source packetReceivedFromLower
attr title "packets received from lower layer, vector(packetBytes)"
vector 218 Wifi2.host42.wlan[0].mac packetDropNotAddressedToUs:vector(packetBytes) ETV
attr interpolationmode none
attr source packetDropReasonIsNotAddressedToUs(packetDropped)
attr title "packet drop: not addressed to us, vector(packetBytes)"
vector 219 Wifi2.host36.wlan[0].mac rcvdPkFromLl:vector(packetBytes) ETV
attr interpolationmode none
attr source packetReceivedFromLower
attr title "packets received from lower layer, vector(packetBytes)"
vector 220 Wifi2.host36.wlan[0].mac packetDropNotAddressedToUs:vector(packetBytes) ETV
attr interpolationmode none
attr source packetDropReasonIsNotAddressedToUs(packetDropped)
attr title "packet drop: not addressed to us, vector(packetBytes)"
vector 221 Wifi2.host88.wlan[0].mac rcvdPkFromLl:vector(packetBytes) ETV
attr interpolationmode none
attr source packetReceivedFromLower
attr title "packets received from lower layer, vector(packetBytes)"
vector 222 Wifi2.host88.wlan[0].mac packetDropNotAddressedToUs:vector(packetBytes) ETV
attr interpolationmode none
attr source packetDropReasonIsNotAddressedToUs(packetDropped)
attr title "packet drop: not addressed to us, vector(packetBytes)"
vector 223 Wifi2.host62.wlan[0].mac rcvdPkFromLl:vector(packetBytes) ETV
attr interpolationmode none
attr source packetReceivedFromLower
attr title "packets received from lower layer, vector(packetBytes)"
vector 224 Wifi2.host62.wlan[0].mac packetDropNotAddressedToUs:vector(packetBytes) ETV
attr interpolationmode none
attr source packetDropReasonIsNotAddressedToUs(packetDropped)
attr title "packet drop: not addressed to us, vector(packetBytes)"
vector 225 Wifi2.host29.wlan[0].mac rcvdPkFromLl:vector(packetBytes) ETV
attr interpolationmode none
attr source packetReceivedFromLower
attr title "packets received from lower layer, vector(packetBytes)"
vector 226 Wifi2.host29.wlan[0].mac packetDropNotAddressedToUs:vector(packetBytes) ETV
attr interpolationmode none
attr source packetDropReasonIsNotAddressedToUs(packetDropped)
attr title "packet drop: not addressed to us, vector(packetBytes)"
vector 227 Wifi2.host68.wlan[0].mac rcvdPkFromLl:vector(packetBytes) ETV
attr interpolationmode none
attr source packetReceivedFromLower
attr title "packets received from lower layer, vector(packetBytes)"
vector 228 Wifi2.host68.wlan[0].mac packetDropNotAddressedToUs:vector(packetBytes) ETV
attr interpolationmode none
attr source packetDropReasonIsNotAddressedToUs(packetDropped)
attr title "packet drop: not addressed to us, vector(packetBytes)"
vector 229 Wifi2.hostB.wlan[0].mac rcvdPkFromLl:vector(packetBytes) ETV
attr interpolationmode none
attr source packetReceivedFromLower
attr title "packets received from lower layer, vector(packetBytes)"
vector 230 Wifi2.hostB.wlan[0].mac packetDropNotAddressedToUs:vector(packetBytes) ETV
attr interpolationmode none
attr source packetDropReasonIsNotAddressedToUs(packetDropped)
attr title "packet drop: not addressed to us, vector(packetBytes)"
vector 231 Wifi2.host23.wlan[0].mac rcvdPkFromLl:vector(packetBytes) ETV
attr interpolationmode none
attr source packetReceivedFromLower
attr title "packets received from lower layer, vector(packetBytes)"
vector 232 Wifi2.host23.wlan[0].mac packetDropNotAddressedToUs:vector(packetBytes) ETV
attr interpolationmode none
attr source packetDropReasonIsNotAddressedToUs(packetDropped)
attr title "packet drop: not addressed to us, vector(packetBytes)"
vector 233 Wifi2.host67.wlan[0].mac rcvdPkFromLl:vector(packetBytes) ETV
attr interpolationmode none
attr source packetReceivedFromLower
attr title "packets received from lower layer, vector(packetBytes)"
vector 234 Wifi2.host67.wlan[0].mac packetDropNotAddressedToUs:vector(packetBytes) ETV
attr interpolationmode none
attr source packetDropReasonIsNotAddressedToUs(packetDropped)
attr title "packet drop: not addressed to us, vector(packetBytes)"
vector 235 Wifi2.host76.wlan[0].mac rcvdPkFromLl:vector(packetBytes) ETV
attr interpolationmode none
attr source packetReceivedFromLower
attr title "packets received from lower layer, vector(packetBytes)"
vector 236 Wifi2.host76.wlan[0].mac packetDropNotAddressedToUs:vector(packetBytes) ETV
attr interpolationmode none
attr source packetDropReasonIsNotAddressedToUs(packetDropped)
attr title "packet drop: not addressed to us, vector(packetBytes)"
vector 237 Wifi2.host71.wlan[0].mac rcvdPkFromLl:vector(packetBytes) ETV
attr interpolationmode none
attr source packetReceivedFromLower
attr title "packets received from lower layer, vector(packetBytes)"
vector 238 Wifi2.host71.wlan[0].mac passedUpPk:vector(packetBytes) ETV
attr interpolationmode none
attr source packetSentToUpper
attr title "packets passed to higher layer, vector(packetBytes)"
vector 239 Wifi2.host71.udp packetReceived:vector(packetBytes) ETV
attr interpolationmode none
attr source packetReceived
attr title "packets received, vector(packetBytes)"
vector 240 Wifi2.host71.udp passedUpPk:vector(count) ETV
attr interpolationmode none
attr source packetSentToUpper
attr title "packets passed up, vector(count)"
vector 241 Wifi2.host71.app[0] packetReceived:vector(packetBytes) ETV
attr interpolationmode none
attr source packetReceived
attr title "packets received, vector(packetBytes)"
vector 242 Wifi2.host71.app[0] endToEndDelay:vector ETV
attr interpolationmode none
attr source dataAge(packetReceived)
attr title "end-to-end delay, vector"
attr unit s
vector 243 Wifi2.host71.app[0] rcvdPkSeqNo:vector ETV
attr interpolationmode none
attr source appPkSeqNo(packetReceived)
attr title "received packet sequence number, vector"
vector 244 Wifi2.host94.wlan[0].mac rcvdPkFromLl:vector(packetBytes) ETV
attr interpolationmode none
attr source packetReceivedFromLower
attr title "packets received from lower layer, vector(packetBytes)"
vector 245 Wifi2.host94.wlan[0].mac packetDropNotAddressedToUs:vector(packetBytes) ETV
attr interpolationmode none
attr source packetDropReasonIsNotAddressedToUs(packetDropped)
attr title "packet drop: not addressed to us, vector(packetBytes)"
vector 246 Wifi2.host27.wlan[0].mac rcvdPkFromLl:vector(packetBytes) ETV
attr interpolationmode none
attr source packetReceivedFromLower
attr title "packets received from lower layer, vector(packetBytes)"
vector 247 Wifi2.host27.wlan[0].mac packetDropNotAddressedToUs:vector(packetBytes) ETV
attr interpolationmode none
attr source packetDropReasonIsNotAddressedToUs(packetDropped)
attr title "packet drop: not addressed to us, vector(packetBytes)"
vector 248 Wifi2.host17.wlan[0].mac rcvdPkFromLl:vector(packetBytes) ETV
attr interpolationmode none
attr source packetReceivedFromLower
attr title "packets received from lower layer, vector(packetBytes)"
vector 249 Wifi2.host17.wlan[0].mac packetDropNotAddressedToUs:vector(packetBytes) ETV
attr interpolationmode none
attr source packetDropReasonIsNotAddressedToUs(packetDropped)
attr title "packet drop: not addressed to us, vector(packetBytes)"
vector 250 Wifi2.host66.wlan[0].mac rcvdPkFromLl:vector(packetBytes) ETV
attr interpolationmode none
attr source packetReceivedFromLower
attr title "packets received from lower layer, vector(packetBytes)"
vector 251 Wifi2.host66.wlan[0].mac packetDropNotAddressedToUs:vector(packetBytes) ETV
attr interpolationmode none
attr source packetDropReasonIsNotAddressedToUs(packetDropped)
attr title "packet drop: not addressed to us, vector(packetBytes)"
vector 252 Wifi2.host47.wlan[0].mac rcvdPkFromLl:vector(packetBytes) ETV
attr interpolationmode none
attr source packetReceivedFromLower
attr title "packets received from lower layer, vector(packetBytes)"
vector 253 Wifi2.host47.wlan[0].mac packetDropNotAddressedToUs:vector(packetBytes) ETV
attr interpolationmode none
attr source packetDropReasonIsNotAddressedToUs(packetDropped)
attr title "packet drop: not addressed to us, vector(packetBytes)"
vector 254 Wifi2.host21.wlan[0].mac rcvdPkFromLl:vector(packetBytes) ETV
attr interpolationmode none
attr source packetReceivedFromLower
attr title "packets received from lower layer, vector(packetBytes)"
vector 255 Wifi2.host21.wlan[0].mac packetDropNotAddressedToUs:vector(packetBytes) ETV
attr interpolationmode none
attr source packetDropReasonIsNotAddressedToUs(packetDropped)
attr title "packet drop: not addressed to us, vector(packetBytes)"
vector 256 Wifi2.host53.wlan[0].mac rcvdPkFromLl:vector(packetBytes) ETV
attr interpolationmode none
attr source packetReceivedFromLower
attr title "packets received from lower layer, vector(packetBytes)"
vector 257 Wifi2.host53.wlan[0].mac packetDropNotAddressedToUs:vector(packetBytes) ETV
attr interpolationmode none
attr source packetDropReasonIsNotAddressedToUs(packetDropped)
attr title "packet drop: not addressed to us, vector(packetBytes)"
vector 258 Wifi2.host58.wlan[0].mac rcvdPkFromLl:vector(packetBytes) ETV
attr interpolationmode none
attr source packetReceivedFromLower
attr title "packets received from lower layer, vector(packetBytes)"
vector 259 Wifi2.host58.wlan[0].mac packetDropNotAddressedToUs:vector(packetBytes) ETV
attr interpolationmode none
attr source packetDropReasonIsNotAddressedToUs(packetDropped)
attr title "packet drop: not addressed to us, vector(packetBytes)"
vector 260 Wifi2.host43.wlan[0].mac rcvdPkFromLl:vector(packetBytes) ETV
attr interpolationmode none
attr source packetReceivedFromLower
attr title "packets received from lower layer, vector(packetBytes)"
vector 261 Wifi2.host43.wlan[0].mac packetDropNotAddressedToUs:vector(packetBytes) ETV
attr interpolationmode none
attr source packetDropReasonIsNotAddressedToUs(packetDropped)
attr title "packet drop: not addressed to us, vector(packetBytes)"
vector 262 Wifi2.host19.wlan[0].mac rcvdPkFromLl:vector(packetBytes) ETV
attr interpolationmode none
attr source packetReceivedFromLower
attr title "packets received from lower layer, vector(packetBytes)"
vector 263 Wifi2.host19.wlan[0].mac packetDropNotAddressedToUs:vector(packetBytes) ETV
attr interpolationmode none
attr source packetDropReasonIsNotAddressedToUs(packetDropped)
attr title "packet drop: not addressed to us, vector(packetBytes)"
vector 264 Wifi2.host26.wlan[0].mac rcvdPkFromLl:vector(packetBytes) ETV
attr interpolationmode none
attr source packetReceivedFromLower
attr title "packets received from lower layer, vector(packetBytes)"
vector 265 Wifi2.host26.wlan[0].mac packetDropNotAddressedToUs:vector(packetBytes) ETV
attr interpolationmode none
attr source packetDropReasonIsNotAddressedToUs(packetDropped)
attr title "packet drop: not addressed to us, vector(packetBytes)"
vector 266 Wifi2.host73.wlan[0].mac rcvdPkFromLl:vector(packetBytes) ETV
attr interpolationmode none
attr source packetReceivedFromLower
attr title "packets received from lower layer, vector(packetBytes)"
vector 267 Wifi2.host73.wlan[0].mac packetDropNotAddressedToUs:vector(packetBytes) ETV
attr interpolationmode none
attr source packetDropReasonIsNotAddressedToUs(packetDropped)
attr title "packet drop: not addressed to us, vector(packetBytes)"
vector 268 Wifi2.host13.wlan[0].mac rcvdPkFromLl:vector(packetBytes) ETV
attr interpolationmode none
attr source packetReceivedFromLower
attr title "packets received from lower layer, vector(packetBytes)"
vector 269 Wifi2.host13.wlan[0].mac packetDropNotAddressedToUs:vector(packetBytes) ETV
attr interpolationmode none
attr source packetDropReasonIsNotAddressedToUs(packetDropped)
attr title "packet drop: not addressed to us, vector(packetBytes)"
vector 270 Wifi2.host77.wlan[0].mac rcvdPkFromLl:vector(packetBytes) ETV
attr interpolationmode none
attr source packetReceivedFromLower
attr title "packets received from lower layer, vector(packetBytes)"
vector 271 Wifi2.host77.wlan[0].mac packetDropNotAddressedToUs:vector(packetBytes) ETV
attr interpolationmode none
attr source packetDropReasonIsNotAddressedToUs(packetDropped)
attr title "packet drop: not addressed to us, vector(packetBytes)"
vector 272 Wifi2.host37.wlan[0].mac rcvdPkFromLl:vector(packetBytes) ETV
attr interpolationmode none
attr source packetReceivedFromLower
attr title "packets received from lower layer, vector(packetBytes)"
vector 273 Wifi2.host37.wlan[0].mac packetDropNotAddressedToUs:vector(packetBytes) ETV
attr interpolationmode none
attr source packetDropReasonIsNotAddressedToUs(packetDropped)
attr title "packet drop: not addressed to us, vector(packetBytes)"
vector 274 Wifi2.host25.wlan[0].mac rcvdPkFromLl:vector(packetBytes) ETV
attr interpolationmode none
attr source packetReceivedFromLower
attr title "packets received from lower layer, vector(packetBytes)"
vector 275 Wifi2.host25.wlan[0].mac packetDropNotAddressedToUs:vector(packetBytes) ETV
attr interpolationmode none
attr source packetDropReasonIsNotAddressedToUs(packetDropped)
attr title "packet drop: not addressed to us, vector(packetBytes)"
vector 276 Wifi2.host79.wlan[0].mac rcvdPkFromLl:vector(packetBytes) ETV
attr interpolationmode none
attr source packetReceivedFromLower
attr title "packets received from lower layer, vector(packetBytes)"
vector 277 Wifi2.host79.wlan[0].mac packetDropNotAddressedToUs:vector(packetBytes) ETV
attr interpolationmode none
attr source packetDropReasonIsNotAddressedToUs(packetDropped)
attr title "packet drop: not addressed to us, vector(packetBytes)"
vector 278 Wifi2.host92.wlan[0].mac rcvdPkFromLl:vector(packetBytes) ETV
attr interpolationmode none
attr source packetReceivedFromLower
attr title "packets received from lower layer, vector(packetBytes)"
vector 279 Wifi2.host92.wlan[0].mac packetDropNotAddressedToUs:vector(packetBytes) ETV
attr interpolationmode none
attr source packetDropReasonIsNotAddressedToUs(packetDropped)
attr title "packet drop: not addressed to us, vector(packetBytes)"
vector 280 Wifi2.host89.wlan[0].mac rcvdPkFromLl:vector(packetBytes) ETV
attr interpolationmode none
attr source packetReceivedFromLower
attr title "packets received from lower layer, vector(packetBytes)"
vector 281 Wifi2.host89.wlan[0].mac packetDropNotAddressedToUs:vector(packetBytes) ETV
attr interpolationmode none
attr source packetDropReasonIsNotAddressedToUs(packetDropped)
attr title "packet drop: not addressed to us, vector(packetBytes)"
vector 282 Wifi2.host22.wlan[0].mac rcvdPkFromLl:vector(packetBytes) ETV
attr interpolationmode none
attr source packetReceivedFromLower
attr title "packets received from lower layer, vector(packetBytes)"
vector 283 Wifi2.host22.wlan[0].mac packetDropNotAddressedToUs:vector(packetBytes) ETV
attr interpolationmode none
attr source packetDropReasonIsNotAddressedToUs(packetDropped)
attr title "packet drop: not addressed to us, vector(packetBytes)"
vector 284 Wifi2.host59.wlan[0].mac rcvdPkFromLl:vector(packetBytes) ETV
attr interpolationmode none
attr source packetReceivedFromLower
attr title "packets received from lower layer, vector(packetBytes)"
vector 285 Wifi2.host59.wlan[0].mac packetDropNotAddressedToUs:vector(packetBytes) ETV
attr interpolationmode none
attr source packetDropReasonIsNotAddressedToUs(packetDropped)
attr title "packet drop: not addressed to us, vector(packetBytes)"
vector 286 Wifi2.host12.wlan[0].mac rcvdPkFromLl:vector(packetBytes) ETV
attr interpolationmode none
attr source packetReceivedFromLower
attr title "packets received from lower layer, vector(packetBytes)"
vector 287 Wifi2.host12.wlan[0].mac packetDropNotAddressedToUs:vector(packetBytes) ETV
attr interpolationmode none
attr source packetDropReasonIsNotAddressedToUs(packetDropped)
attr title "packet drop: not addressed to us, vector(packetBytes)"
vector 288 Wifi2.host81.wlan[0].mac rcvdPkFromLl:vector(packetBytes) ETV
attr interpolationmode none
attr source packetReceivedFromLower
attr title "packets received from lower layer, vector(packetBytes)"
vector 289 Wifi2.host81.wlan[0].mac packetDropNotAddressedToUs:vector(packetBytes) ETV
attr interpolationmode none
attr source packetDropReasonIsNotAddressedToUs(packetDropped)
attr title "packet drop: not addressed to us, vector(packetBytes)"
vector 290 Wifi2.host9.wlan[0].mac rcvdPkFromLl:vector(packetBytes) ETV
attr interpolationmode none
attr source packetReceivedFromLower
attr title "packets received from lower layer, vector(packetBytes)"
vector 291 Wifi2.host9.wlan[0].mac packetDropNotAddressedToUs:vector(packetBytes) ETV
attr interpolationmode none
attr source packetDropReasonIsNotAddressedToUs(packetDropped)
attr title "packet drop: not addressed to us, vector(packetBytes)"
vector 292 Wifi2.host54.wlan[0].mac rcvdPkFromLl:vector(packetBytes) ETV
attr interpolationmode none
attr source packetReceivedFromLower
attr title "packets received from lower layer, vector(packetBytes)"
vector 293 Wifi2.host54.wlan[0].mac packetDropNotAddressedToUs:vector(packetBytes) ETV
attr interpolationmode none
attr source packetDropReasonIsNotAddressedToUs(packetDropped)
attr title "packet drop: not addressed to us, vector(packetBytes)"
vector 294 Wifi2.host31.wlan[0].mac rcvdPkFromLl:vector(packetBytes) ETV
attr interpolationmode none
attr source packetReceivedFromLower
attr title "packets received from lower layer, vector(packetBytes)"
vector 295 Wifi2.host31.wlan[0].mac packetDropNotAddressedToUs:vector(packetBytes) ETV
attr interpolationmode none
attr source packetDropReasonIsNotAddressedToUs(packetDropped)
attr title "packet drop: not addressed to us, vector(packetBytes)"
vector 296 Wifi2.host70.wlan[0].mac rcvdPkFromLl:vector(packetBytes) ETV
attr interpolationmode none
attr source packetReceivedFromLower
attr title "packets received from lower layer, vector(packetBytes)"
vector 297 Wifi2.host70.wlan[0].mac packetDropNotAddressedToUs:vector(packetBytes) ETV
attr interpolationmode none
attr source packetDropReasonIsNotAddressedToUs(packetDropped)
attr title "packet drop: not addressed to us, vector(packetBytes)"
vector 298 Wifi2.hostC.wlan[0].mac rcvdPkFromLl:vector(packetBytes) ETV
attr interpolationmode none
attr source packetReceivedFromLower
attr title "packets received from lower layer, vector(packetBytes)"
vector 299 Wifi2.hostC.wlan[0].mac packetDropNotAddressedToUs:vector(packetBytes) ETV
attr interpolationmode none
attr source packetDropReasonIsNotAddressedToUs(packetDropped)
attr title "packet drop: not addressed to us, vector(packetBytes)"
vector 300 Wifi2.host7.wlan[0].mac rcvdPkFromLl:vector(packetBytes) ETV
attr interpolationmode none
attr source packetReceivedFromLower
attr title "packets received from lower layer, vector(packetBytes)"
vector 301 Wifi2.host7.wlan[0].mac packetDropNotAddressedToUs:vector(packetBytes) ETV
attr interpolationmode none
attr source packetDropReasonIsNotAddressedToUs(packetDropped)
attr title "packet drop: not addressed to us, vector(packetBytes)"
vector 302 Wifi2.host32.wlan[0].mac rcvdPkFromLl:vector(packetBytes) ETV
attr interpolationmode none
attr source packetReceivedFromLower
attr title "packets received from lower layer, vector(packetBytes)"
vector 303 Wifi2.host32.wlan[0].mac packetDropNotAddressedToUs:vector(packetBytes) ETV
attr interpolationmode none
attr source packetDropReasonIsNotAddressedToUs(packetDropped)
attr title "packet drop: not addressed to us, vector(packetBytes)"
vector 304 Wifi2.host6.wlan[0].mac rcvdPkFromLl:vector(packetBytes) ETV
attr interpolationmode none
attr source packetReceivedFromLower
attr title "packets received from lower layer, vector(packetBytes)"
vector 305 Wifi2.host6.wlan[0].mac packetDropNotAddressedToUs:vector(packetBytes) ETV
attr interpolationmode none
attr source packetDropReasonIsNotAddressedToUs(packetDropped)
attr title "packet drop: not addressed to us, vector(packetBytes)"
vector 306 Wifi2.host33.wlan[0].mac rcvdPkFromLl:vector(packetBytes) ETV
attr interpolationmode none
attr source packetReceivedFromLower
attr title "packets received from lower layer, vector(packetBytes)"
vector 307 Wifi2.host33.wlan[0].mac packetDropNotAddressedToUs:vector(packetBytes) ETV
attr interpolationmode none
attr source packetDropReasonIsNotAddressedToUs(packetDropped)
attr title "packet drop: not addressed to us, vector(packetBytes)"
vector 308 Wifi2.host85.wlan[0].mac rcvdPkFromLl:vector(packetBytes) ETV
attr interpolationmode none
attr source packetReceivedFromLower
attr title "packets received from lower layer, vector(packetBytes)"
vector 309 Wifi2.host85.wlan[0].mac packetDropNotAddressedToUs:vector(packetBytes) ETV
attr interpolationmode none
attr source packetDropReasonIsNotAddressedToUs(packetDropped)
attr title "packet drop: not addressed to us, vector(packetBytes)"
vector 310 Wifi2.host83.wlan[0].mac rcvdPkFromLl:vector(packetBytes) ETV
attr interpolationmode none
attr source packetReceivedFromLower
attr title "packets received from lower layer, vector(packetBytes)"
vector 311 Wifi2.host83.wlan[0].mac packetDropNotAddressedToUs:vector(packetBytes) ETV
attr interpolationmode none
attr source packetDropReasonIsNotAddressedToUs(packetDropped)
attr title "packet drop: not addressed to us, vector(packetBytes)"
vector 312 Wifi2.host20.wlan[0].mac rcvdPkFromLl:vector(packetBytes) ETV
attr interpolationmode none
attr source packetReceivedFromLower
attr title "packets received from lower layer, vector(packetBytes)"
vector 313 Wifi2.host20.wlan[0].mac packetDropNotAddressedToUs:vector(packetBytes) ETV
attr interpolationmode none
attr source packetDropReasonIsNotAddressedToUs(packetDropped)
attr title "packet drop: not addressed to us, vector(packetBytes)"
vector 314 Wifi2.host72.wlan[0].mac rcvdPkFromLl:vector(packetBytes) ETV
attr interpolationmode none
attr source packetReceivedFromLower
attr title "packets received from lower layer, vector(packetBytes)"
vector 315 Wifi2.host72.wlan[0].mac packetDropNotAddressedToUs:vector(packetBytes) ETV
attr interpolationmode none
attr source packetDropReasonIsNotAddressedToUs(packetDropped)
attr title "packet drop: not addressed to us, vector(packetBytes)"
vector 316 Wifi2.host86.wlan[0].mac rcvdPkFromLl:vector(packetBytes) ETV
attr interpolationmode none
attr source packetReceivedFromLower
attr title "packets received from lower layer, vector(packetBytes)"
vector 317 Wifi2.host86.wlan[0].mac packetDropNotAddressedToUs:vector(packetBytes) ETV
attr interpolationmode none
attr source packetDropReasonIsNotAddressedToUs(packetDropped)
attr title "packet drop: not addressed to us, vector(packetBytes)"
vector 318 Wifi2.host15.wlan[0].mac rcvdPkFromLl:vector(packetBytes) ETV
attr interpolationmode none
attr source packetReceivedFromLower
attr title "packets received from lower layer, vector(packetBytes)"
vector 319 Wifi2.host15.wlan[0].mac packetDropNotAddressedToUs:vector(packetBytes) ETV
attr interpolationmode none
attr source packetDropReasonIsNotAddressedToUs(packetDropped)
attr title "packet drop: not addressed to us, vector(packetBytes)"
vector 320 Wifi2.host87.wlan[0].mac rcvdPkFromLl:vector(packetBytes) ETV
attr interpolationmode none
attr source packetReceivedFromLower
attr title "packets received from lower layer, vector(packetBytes)"
vector 321 Wifi2.host87.wlan[0].mac packetDropNotAddressedToUs:vector(packetBytes) ETV
attr interpolationmode none
attr source packetDropReasonIsNotAddressedToUs(packetDropped)
attr title "packet drop: not addressed to us, vector(packetBytes)"
vector 322 Wifi2.host96.wlan[0].mac rcvdPkFromLl:vector(packetBytes) ETV
attr interpolationmode none
attr source packetReceivedFromLower
attr title "packets received from lower layer, vector(packetBytes)"
vector 323 Wifi2.host96.wlan[0].mac packetDropNotAddressedToUs:vector(packetBytes) ETV
attr interpolationmode none
attr source packetDropReasonIsNotAddressedToUs(packetDropped)
attr title "packet drop: not addressed to us, vector(packetBytes)"
vector 324 Wifi2.host35.wlan[0].mac rcvdPkFromLl:vector(packetBytes) ETV
attr interpolationmode none
attr source packetReceivedFromLower
attr title "packets received from lower layer, vector(packetBytes)"
vector 325 Wifi2.host35.wlan[0].mac packetDropNotAddressedToUs:vector(packetBytes) ETV
attr interpolationmode none
attr source packetDropReasonIsNotAddressedToUs(packetDropped)
attr title "packet drop: not addressed to us, vector(packetBytes)"
vector 326 Wifi2.host91.wlan[0].mac rcvdPkFromLl:vector(packetBytes) ETV
attr interpolationmode none
attr source packetReceivedFromLower
attr title "packets received from lower layer, vector(packetBytes)"
vector 327 Wifi2.host91.wlan[0].mac packetDropNotAddressedToUs:vector(packetBytes) ETV
attr interpolationmode none
attr source packetDropReasonIsNotAddressedToUs(packetDropped)
attr title "packet drop: not addressed to us, vector(packetBytes)"
vector 328 Wifi2.host10.wlan[0].mac rcvdPkFromLl:vector(packetBytes) ETV
attr interpolationmode none
attr source packetReceivedFromLower
attr title "packets received from lower layer, vector(packetBytes)"
vector 329 Wifi2.host10.wlan[0].mac packetDropNotAddressedToUs:vector(packetBytes) ETV
attr interpolationmode none
attr source packetDropReasonIsNotAddressedToUs(packetDropped)
attr title "packet drop: not addressed to us, vector(packetBytes)"
vector 330 Wifi2.host24.wlan[0].mac rcvdPkFromLl:vector(packetBytes) ETV
attr interpolationmode none
attr source packetReceivedFromLower
attr title "packets received from lower layer, vector(packetBytes)"
vector 331 Wifi2.host24.wlan[0].mac packetDropNotAddressedToUs:vector(packetBytes) ETV
attr interpolationmode none
attr source packetDropReasonIsNotAddressedToUs(packetDropped)
attr title "packet drop: not addressed to us, vector(packetBytes)"
vector 332 Wifi2.host50.wlan[0].mac rcvdPkFromLl:vector(packetBytes) ETV
attr interpolationmode none
attr source packetReceivedFromLower
attr title "packets received from lower layer, vector(packetBytes)"
vector 333 Wifi2.host50.wlan[0].mac packetDropNotAddressedToUs:vector(packetBytes) ETV
attr interpolationmode none
attr source packetDropReasonIsNotAddressedToUs(packetDropped)
attr title "packet drop: not addressed to us, vector(packetBytes)"
vector 334 Wifi2.host11.wlan[0].mac rcvdPkFromLl:vector(packetBytes) ETV
attr interpolationmode none
attr source packetReceivedFromLower
attr title "packets received from lower layer, vector(packetBytes)"
vector 335 Wifi2.host11.wlan[0].mac packetDropNotAddressedToUs:vector(packetBytes) ETV
attr interpolationmode none
attr source packetDropReasonIsNotAddressedToUs(packetDropped)
attr title "packet drop: not addressed to us, vector(packetBytes)"
vector 336 Wifi2.host69.wlan[0].mac rcvdPkFromLl:vector(packetBytes) ETV
attr interpolationmode none
attr source packetReceivedFromLower
attr title "packets received from lower layer, vector(packetBytes)"
vector 337 Wifi2.host69.wlan[0].mac packetDropNotAddressedToUs:vector(packetBytes) ETV
attr interpolationmode none
attr source packetDropReasonIsNotAddressedToUs(packetDropped)
attr title "packet drop: not addressed to us, vector(packetBytes)"
vector 338 Wifi2.host95.wlan[0].mac rcvdPkFromLl:vector(packetBytes) ETV
attr interpolationmode none
attr source packetReceivedFromLower
attr title "packets received from lower layer, vector(packetBytes)"
vector 339 Wifi2.host95.wlan[0].mac packetDropNotAddressedToUs:vector(packetBytes) ETV
attr interpolationmode none
attr source packetDropReasonIsNotAddressedToUs(packetDropped)
attr title "packet drop: not addressed to us, vector(packetBytes)"
vector 340 Wifi2.host75.wlan[0].mac rcvdPkFromLl:vector(packetBytes) ETV
attr interpolationmode none
attr source packetReceivedFromLower
attr title "packets received from lower layer, vector(packetBytes)"
vector 341 Wifi2.host75.wlan[0].mac packetDropNotAddressedToUs:vector(packetBytes) ETV
attr interpolationmode none
attr source packetDropReasonIsNotAddressedToUs(packetDropped)
attr title "packet drop: not addressed to us, vector(packetBytes)"
vector 342 Wifi2.host45.wlan[0].mac rcvdPkFromLl:vector(packetBytes) ETV
attr interpolationmode none
attr source packetReceivedFromLower
attr title "packets received from lower layer, vector(packetBytes)"
vector 343 Wifi2.host45.wlan[0].mac packetDropNotAddressedToUs:vector(packetBytes) ETV
attr interpolationmode none
attr source packetDropReasonIsNotAddressedToUs(packetDropped)
attr title "packet drop: not addressed to us, vector(packetBytes)"
vector 344 Wifi2.host14.wlan[0].mac rcvdPkFromLl:vector(packetBytes) ETV
attr interpolationmode none
attr source packetReceivedFromLower
attr title "packets received from lower layer, vector(packetBytes)"
vector 345 Wifi2.host14.wlan[0].mac packetDropNotAddressedToUs:vector(packetBytes) ETV
attr interpolationmode none
attr source packetDropReasonIsNotAddressedToUs(packetDropped)
attr title "packet drop: not addressed to us, vector(packetBytes)"
vector 346 Wifi2.host90.wlan[0].mac rcvdPkFromLl:vector(packetBytes) ETV
attr interpolationmode none
attr source packetReceivedFromLower
attr title "packets received from lower layer, vector(packetBytes)"
vector 347 Wifi2.host90.wlan[0].mac packetDropNotAddressedToUs:vector(packetBytes) ETV
attr interpolationmode none
attr source packetDropReasonIsNotAddressedToUs(packetDropped)
attr title "packet drop: not addressed to us, vector(packetBytes)"
vector 348 Wifi2.host52.wlan[0].mac rcvdPkFromLl:vector(packetBytes) ETV
attr interpolationmode none
attr source packetReceivedFromLower
attr title "packets received from lower layer, vector(packetBytes)"
vector 349 Wifi2.host52.wlan[0].mac packetDropNotAddressedToUs:vector(packetBytes) ETV
attr interpolationmode none
attr source packetDropReasonIsNotAddressedToUs(packetDropped)
attr title "packet drop: not addressed to us, vector(packetBytes)"
vector 350 Wifi2.host80.wlan[0].mac rcvdPkFromLl:vector(packetBytes) ETV
attr interpolationmode none
attr source packetReceivedFromLower
attr title "packets received from lower layer, vector(packetBytes)"
vector 351 Wifi2.host80.wlan[0].mac packetDropNotAddressedToUs:vector(packetBytes) ETV
attr interpolationmode none
attr source packetDropReasonIsNotAddressedToUs(packetDropped)
attr title "packet drop: not addressed to us, vector(packetBytes)"
vector 352 Wifi2.host63.wlan[0].mac rcvdPkFromLl:vector(packetBytes) ETV
attr interpolationmode none
attr source packetReceivedFromLower
attr title "packets received from lower layer, vector(packetBytes)"
vector 353 Wifi2.host63.wlan[0].mac packetDropNotAddressedToUs:vector(packetBytes) ETV
attr interpolationmode none
attr source packetDropReasonIsNotAddressedToUs(packetDropped)
attr title "packet drop: not addressed to us, vector(packetBytes)"
vector 354 Wifi2.host46.wlan[0].mac rcvdPkFromLl:vector(packetBytes) ETV
attr interpolationmode none
attr source packetReceivedFromLower
attr title "packets received from lower layer, vector(packetBytes)"
[...]
836	216052136 173 4877712 4921371 198.0317498562 199.702452976762 5 16533 16681 82919 1375126431
837	216052309 34 4896620 4896620 198.786756565699 198.786756565699 1 1028 1028 1028 1056784
838	216052343 34 4896622 4896622 198.786756565699 198.786756565699 1 1008 1008 1008 1016064
839	216052377 33 4896622 4896622 198.786756565699 198.786756565699 1 173 173 173 29929
840	216052410 34 4896623 4896623 198.786756565699 198.786756565699 1 1000 1000 1000 1000000
841	216052444 660 4896623 4927377 196.8 200 33 0 80000 160000 12800000000
842	216053104 44 4896623 4896623 198.786756565699 198.786756565699 1 0.000851807225 0.000851807225 0.000851807225 7.255755485622e-07
843	216053148 35 4896623 4896623 198.786756565699 198.786756565699 1 16597 16597 16597 275460409
844	216053183 67 4880117 4925842 198.157924767404 199.87483024769 2 1028 1028 2056 2113568
845	216053250 67 4880119 4925844 198.157924767404 199.87483024769 2 1008 1008 2016 2032128
846	216053317 65 4880119 4925844 198.157924767404 199.87483024769 2 173 174 347 60205
847	216053382 67 4880120 4925845 198.157924767404 199.87483024769 2 1000 1000 2000 2000000
848	216053449 1218 4880120 4927377 194 200 61 0 80000 240000 19200000000
849	216054667 87 4880120 4925845 198.157924767404 199.87483024769 2 0.000851904779 0.000851904779 0.001703809558 1.4514835049661e-06
850	216054754 69 4880120 4925845 198.157924767404 199.87483024769 2 16541 16696 33237 552361097
851	216054823 67 4878003 4905143 198.052677166453 199.10282424742 2 1028 1028 2056 2113568
852	216054890 67 4878005 4905145 198.052677166453 199.10282424742 2 1008 1008 2016 2032128
853	216054957 65 4878005 4905145 198.052677166453 199.10282424742 2 155 156 311 48361
854	216055022 67 4878006 4905146 198.052677166453 199.10282424742 2 1000 1000 2000 2000000
855	216055089 664 4878006 4927377 196.8 200 33 0 80000 240000 19200000000
856	216055753 87 4878006 4905146 198.052677166453 199.10282424742 2 0.000851653553 0.000851653553 0.001703307106 1.450627548675e-06
857	216055840 69 4878006 4905146 198.052677166453 199.10282424742 2 16534 16626 33160 549797032
858	216055909 33 4895924 4895924 198.75382443949 198.75382443949 1 1028 1028 1028 1056784
859	216055942 33 4895926 4895926 198.75382443949 198.75382443949 1 1008 1008 1008 1016064
860	216055975 32 4895926 4895926 198.75382443949 198.75382443949 1 178 178 178 31684
861	216056007 33 4895927 4895927 198.75382443949 198.75382443949 1 1000 1000 1000 1000000
862	216056040 620 4895927 4927377 197 200 31 0 80000 160000 12800000000
863	216056660 43 4895927 4895927 198.75382443949 198.75382443949 1 0.000851219891 0.000851219891 0.000851219891 7.2457530283405e-07
864	216056703 34 4895927 4895927 198.75382443949 198.75382443949 1 16595 16595 16595 275394025
865	216056737 34 4872040 4872040 197.781121568805 197.781121568805 1 1028 1028 1028 1056784
866	216056771 34 4872042 4872042 197.781121568805 197.781121568805 1 1008 1008 1008 1016064
867	216056805 33 4872042 4872042 197.781121568805 197.781121568805 1 168 168 168 28224
868	216056838 34 4872043 4872043 197.781121568805 197.781121568805 1 1000 1000 1000 1000000
869	216056872 602 4872043 4927377 197.1 200 30 0 80000 160000 12800000000
870	216057474 44 4872043 4872043 197.781121568805 197.781121568805 1 0.000851362665 0.000851362665 0.000851362665 7.248183873559e-07
871	216057518 35 4872043 4872043 197.781121568805 197.781121568805 1 16514 16514 16514 272712196
872	216057553 34 4895697 4895697 198.718403824651 198.718403824651 1 1028 1028 1028 1056784
873	216057587 34 4895699 4895699 198.718403824651 198.718403824651 1 1008 1008 1008 1016064
874	216057621 33 4895699 4895699 198.718403824651 198.718403824651 1 188 188 188 35344
875	216057654 34 4895700 4895700 198.718403824651 198.718403824651 1 1000 1000 1000 1000000
876	216057688 582 4895700 4927377 197.2 200 29 0 80000 160000 12800000000
877	216058270 44 4895700 4895700 198.718403824651 198.718403824651 1 0.000851631952 0.000851631952 0.000851631952 7.2527698166733e-07
878	216058314 35 4895700 4895700 198.718403824651 198.718403824651 1 16594 16594 16594 275360836
879	216058349 102 4894148 4906834 198.673220764435 199.177590110834 3 1028 1028 3084 3170352
880	216058451 102 4894150 4906836 198.673220764435 199.177590110834 3 1008 1008 3024 3048192
881	216058553 99 4894150 4906836 198.673220764435 199.177590110834 3 163 165 492 80690
882	216058652 102 4894151 4906837 198.673220764435 199.177590110834 3 1000 1000 3000 3000000
883	216058754 607 4894151 4927377 197.1 200 30 0 160000 320000 38400000000
884	216059361 132 4894151 4906837 198.673220764435 199.177590110834 3 0.000851210739 0.000851210739 0.002553632217 2.1736791665668e-06
885	216059493 105 4894151 4906837 198.673220764435 199.177590110834 3 16589 16632 49852 828408506
886	216059598 102 4877122 4926388 198.019810356653 199.905465536135 3 1028 1028 3084 3170352
887	216059700 102 4877124 4926390 198.019810356653 199.905465536135 3 1008 1008 3024 3048192
888	216059802 99 4877124 4926390 198.019810356653 199.905465536135 3 165 167 498 82670
889	216059901 102 4877125 4926391 198.019810356653 199.905465536135 3 1000 1000 3000 3000000
890	216060003 530 4877125 4927377 197.5 200 26 0 80000 320000 25600000000
891	216060533 132 4877125 4926391 198.019810356653 199.905465536135 3 0.000851678679 0.000851678679 0.002555036037 2.1760697167896e-06
892	216060665 105 4877125 4926391 198.019810356653 199.905465536135 3 16531 16698 49915 830519761
893	216060770 34 4897538 4897538 198.819184183775 198.819184183775 1 1028 1028 1028 1056784
894	216060804 34 4897540 4897540 198.819184183775 198.819184183775 1 1008 1008 1008 1016064
895	216060838 33 4897540 4897540 198.819184183775 198.819184183775 1 191 191 191 36481
896	216060871 34 4897541 4897541 198.819184183775 198.819184183775 1 1000 1000 1000 1000000
897	216060905 760 4897541 4927377 196.3 200 38 0 80000 160000 12800000000
898	216061665 44 4897541 4897541 198.819184183775 198.819184183775 1 0.000851946268 0.000851946268 0.000851946268 7.2581244355913e-07
899	216061709 35 4897541 4897541 198.819184183775 198.819184183775 1 16600 16600 16600 275560000
900	216061744 102 4880673 4908107 198.183663210295 199.241212220568 3 1028 1028 3084 3170352
901	216061846 102 4880675 4908109 198.183663210295 199.241212220568 3 1008 1008 3024 3048192
902	216061948 99 4880675 4908109 198.183663210295 199.241212220568 3 153 155 462 71150
903	216062047 102 4880676 4908110 198.183663210295 199.241212220568 3 1000 1000 3000 3000000
904	216062149 570 4880676 4927377 197.3 200 28 0 80000 320000 25600000000
905	216062719 132 4880676 4908110 198.183663210295 199.241212220568 3 0.000851720795 0.001666992625 0.003370434215 4.2297210370753e-06
906	216062851 105 4880676 4908110 198.183663210295 199.241212220568 3 16543 16636 49733 824462261
907	216062956 102 4894907 4924112 198.689749986773 199.803933466181 3 1028 1028 3084 3170352
908	216063058 102 4894909 4924114 198.689749986773 199.803933466181 3 1008 1008 3024 3048192
909	216063160 99 4894909 4924114 198.689749986773 199.803933466181 3 182 184 549 100469
910	216063259 102 4894910 4924115 198.689749986773 199.803933466181 3 1000 1000 3000 3000000
911	216063361 530 4894910 4927377 197.5 200 26 0 80000 320000 25600000000
912	216063891 132 4894910 4924115 198.689749986773 199.803933466181 3 0.000852010919 0.000852010919 0.002556032757 2.1777678182857e-06
913	216064023 105 4894910 4924115 198.689749986773 199.803933466181 3 16591 16690 49932 831073182
914	216064128 34 4887983 4887983 198.454016124769 198.454016124769 1 1028 1028 1028 1056784
915	216064162 34 4887985 4887985 198.454016124769 198.454016124769 1 1008 1008 1008 1016064
916	216064196 33 4887985 4887985 198.454016124769 198.454016124769 1 178 178 178 31684
917	216064229 34 4887986 4887986 198.454016124769 198.454016124769 1 1000 1000 1000 1000000
918	216064263 1056 4887986 4927377 194.8 200 53 0 80000 160000 12800000000
919	216065319 44 4887986 4887986 198.454016124769 198.454016124769 1 0.000851429871 0.000851429871 0.000851429871 7.2493282523108e-07
920	216065363 35 4887986 4887986 198.454016124769 198.454016124769 1 16568 16568 16568 274498624
925	216065398 1012 4927377 4927377 195 200 51 0 80000 80000 6400000000
928	216066410 34 4921118 4921118 199.699236691989 199.699236691989 1 1028 1028 1028 1056784
929	216066444 34 4921120 4921120 199.699236691989 199.699236691989 1 1008 1008 1008 1016064
930	216066478 33 4921120 4921120 199.699236691989 199.699236691989 1 173 173 173 29929
931	216066511 34 4921121 4921121 199.699236691989 199.699236691989 1 1000 1000 1000 1000000
932	216066545 858 4921121 4927377 195.8 200 43 0 80000 160000 12800000000
933	216067403 44 4921121 4921121 199.699236691989 199.699236691989 1 0.001097792938 0.001097792938 0.001097792938 1.2051493347227e-06
934	216067447 35 4921121 4921121 199.699236691989 199.699236691989 1 16680 16680 16680 278222400
935	216067482 102 4879537 4917003 198.123949084317 199.512682828295 3 1028 1028 3084 3170352
936	216067584 102 4879539 4917005 198.123949084317 199.512682828295 3 1008 1008 3024 3048192
937	216067686 99 4879539 4917005 198.123949084317 199.512682828295 3 172 174 519 89789
938	216067785 102 4879540 4917006 198.123949084317 199.512682828295 3 1000 1000 3000 3000000
939	216067887 668 4879540 4927377 196.8 200 33 0 80000 320000 25600000000
940	216068555 132 4879540 4917006 198.123949084317 199.512682828295 3 0.000851922332 0.000851922332 0.002555766996 2.177314979281e-06
941	216068687 105 4879540 4917006 198.123949084317 199.512682828295 3 16539 16666 49755 825196577
942	216068792 68 4867344 4879735 197.565422306513 198.150037011128 2 1028 1028 2056 2113568
943	216068860 68 4867346 4879737 197.565422306513 198.150037011128 2 1008 1008 2016 2032128
944	216068928 66 4867346 4879737 197.565422306513 198.150037011128 2 172 173 345 59513
945	216068994 68 4867347 4879738 197.565422306513 198.150037011128 2 1000 1000 2000 2000000
946	216069062 546 4867347 4927377 197.4 200 27 0 80000 240000 19200000000
947	216069608 87 4867347 4879738 197.565422306513 198.150037011128 2 0.00085150786 0.001289366173 0.002140874033 2.3875307637184e-06
948	216069695 70 4867347 4879738 197.565422306513 198.150037011128 2 16498 16540 33038 545755604
949	216069765 34 4913491 4913491 199.373208007971 199.373208007971 1 1028 1028 1028 1056784
950	216069799 34 4913493 4913493 199.373208007971 199.373208007971 1 1008 1008 1008 1016064
951	216069833 33 4913493 4913493 199.373208007971 199.373208007971 1 173 173 173 29929
952	216069866 34 4913494 4913494 199.373208007971 199.373208007971 1 1000 1000 1000 1000000
953	216069900 562 4913494 4927377 197.3 200 28 0 80000 160000 12800000000
954	216070462 44 4913494 4913494 199.373208007971 199.373208007971 1 0.000852010509 0.000852010509 0.000852010509 7.2592190744644e-07
955	216070506 35 4913494 4913494 199.373208007971 199.373208007971 1 16654 16654 16654 277355716
956	216070541 34 4915748 4915748 199.480754232873 199.480754232873 1 1028 1028 1028 1056784
957	216070575 34 4915750 4915750 199.480754232873 199.480754232873 1 1008 1008 1008 1016064
958	216070609 33 4915750 4915750 199.480754232873 199.480754232873 1 163 163 163 26569
959	216070642 34 4915751 4915751 199.480754232873 199.480754232873 1 1000 1000 1000 1000000
960	216070676 680 4915751 4927377 196.7 200 34 0 80000 160000 12800000000
961	216071356 44 4915751 4915751 199.480754232873 199.480754232873 1 0.000851607033 0.000851607033 0.000851607033 7.2523453865506e-07
962	216071400 35 4915751 4915751 199.480754232873 199.480754232873 1 16662 16662 16662 277622244
963	216071435 102 4888244 4914793 198.476561928121 199.443188206298 3 1028 1028 3084 3170352
964	216071537 102 4888246 4914795 198.476561928121 199.443188206298 3 1008 1008 3024 3048192
965	216071639 99 4888246 4914795 198.476561928121 199.443188206298 3 163 165 492 80690
966	216071738 102 4888247 4914796 198.476561928121 199.443188206298 3 1000 1000 3000 3000000
967	216071840 530 4888247 4927377 197.5 200 26 0 80000 320000 25600000000
968	216072370 132 4888247 4914796 198.476561928121 199.443188206298 3 0.000851027162 0.000851027162 0.002553081486 2.1727416913853e-06
969	216072502 105 4888247 4914796 198.476561928121 199.443188206298 3 16569 16659 49818 827282142
970	216072607 68 4890156 4899595 198.529303666095 198.912633178604 2 1028 1028 2056 2113568
971	216072675 68 4890158 4899597 198.529303666095 198.912633178604 2 1008 1008 2016 2032128
972	216072743 66 4890158 4899597 198.529303666095 198.912633178604 2 199 200 399 79601
973	216072809 68 4890159 4899598 198.529303666095 198.912633178604 2 1000 1000 2000 2000000
974	216072877 566 4890159 4927377 197.3 200 28 0 80000 240000 19200000000
975	216073443 88 4890159 4899598 198.529303666095 198.912633178604 2 0.000851919749 0.000851919749 0.001703839498 1.4515345174724e-06
976	216073531 70 4890159 4899598 198.529303666095 198.912633178604 2 16575 16607 33182 550523074
977	216073601 238 4872735 4916348 197.793499012455 199.499787151444 7 1028 1028 7196 7397488
978	216073839 238 4872737 4916350 197.793499012455 199.499787151444 7 1008 1008 7056 7112448
979	216074077 231 4872737 4916350 197.793499012455 199.499787151444 7 193 199 1372 268940
980	216074308 238 4872738 4916351 197.793499012455 199.499787151444 7 1000 1000 7000 7000000
981	216074546 543 4872738 4927377 197.5 200 26 0 160000 640000 64000000000
982	216075089 308 4872738 4916351 197.793499012455 199.499787151444 7 0.000851647115 0.000851647115 0.005961529805 5.0771196594148e-06
983	216075397 245 4872738 4916351 197.793499012455 199.499787151444 7 16516 16664 116058 1924222630
984	216075642 34 4889750 4889750 198.517566403535 198.517566403535 1 1028 1028 1028 1056784
985	216075676 34 4889752 4889752 198.517566403535 198.517566403535 1 1008 1008 1008 1016064
986	216075710 33 4889752 4889752 198.517566403535 198.517566403535 1 169 169 169 28561
987	216075743 34 4889753 4889753 198.517566403535 198.517566403535 1 1000 1000 1000 1000000
988	216075777 602 4889753 4927377 197.1 200 30 0 80000 160000 12800000000
989	216076379 44 4889753 4889753 198.517566403535 198.517566403535 1 0.000851416513 0.000851416513 0.000851416513 7.2491007860908e-07
990	216076423 35 4889753 4889753 198.517566403535 198.517566403535 1 16574 16574 16574 274697476
991	216076458 800 4917618 4927377 196.1 200 40 0 80000 160000 12800000000
992	216077258 68 4898073 4898662 198.852580099981 198.872159783248 2 1028 1028 2056 2113568
993	216077326 68 4898075 4898664 198.852580099981 198.872159783248 2 1008 1008 2016 2032128
994	216077394 66 4898075 4898664 198.852580099981 198.872159783248 2 179 180 359 64441
995	216077460 68 4898076 4898665 198.852580099981 198.872159783248 2 1000 1000 2000 2000000
996	216077528 661 4898076 4927377 196.8 200 33 0 160000 240000 32000000000
997	216078189 88 4898076 4898665 198.852580099981 198.872159783248 2 0.000851698315 0.000851698315 0.00170339663 1.4507800395477e-06
998	216078277 70 4898076 4898665 198.852580099981 198.872159783248 2 16602 16604 33206 551319220
999	216078347 68 4910557 4925602 199.298341203788 199.873686471619 2 1028 1028 2056 2113568
1000	216078415 70 4910559 4925604 199.298341203788 199.873686471619 2 1008 1008 2016 2032128
1001	216078485 68 4910559 4925604 199.298341203788 199.873686471619 2 167 168 335 56113
1002	216078553 70 4910560 4925605 199.298341203788 199.873686471619 2 1000 1000 2000 2000000
1003	216078623 1052 4910560 4927377 195.1 200 50 0 80000 240000 19200000000
1004	216079675 90 4910560 4925605 199.298341203788 199.873686471619 2 0.000852248365 0.000852248365 0.00170449673 1.4526545512903e-06
1005	216079765 72 4910560 4925605 199.298341203788 199.873686471619 2 16644 16695 33339 555745761
1006	216079837 210 4870879 4906283 197.720024926278 199.125922097258 6 1028 1028 6168 6340704
1007	216080047 210 4870881 4906285 197.720024926278 199.125922097258 6 1008 1008 6048 6096384
1008	216080257 204 4870881 4906285 197.720024926278 199.125922097258 6 161 166 981 160411
1009	216080461 210 4870882 4906286 197.720024926278 199.125922097258 6 1000 1000 6000 6000000
1010	216080671 1108 4870882 4927377 194.9 200 52 0 80000 560000 44800000000
1011	216081779 270 4870882 4906286 197.720024926278 199.125922097258 6 0.000851496041 0.000851496041 0.005108976246 4.350273047032e-06
1012	216082049 216 4870882 4906286 197.720024926278 199.125922097258 6 16510 16630 99404 1646869470
1013	216082265 105 4869195 4914035 197.700352013434 199.410221524766 3 1028 1028 3084 3170352
1014	216082370 105 4869197 4914037 197.700352013434 199.410221524766 3 1008 1008 3024 3048192
1015	216082475 102 4869197 4914037 197.700352013434 199.410221524766 3 185 187 558 103790
1016	216082577 105 4869198 4914038 197.700352013434 199.410221524766 3 1000 1000 3000 3000000
1017	216082682 1096 4869198 4927377 194.9 200 52 0 80000 320000 25600000000
1018	216083778 135 4869198 4914038 197.700352013434 199.410221524766 3 0.000851842924 0.000851842924 0.002555528772 2.1769091015066e-06
1019	216083913 108 4869198 4914038 197.700352013434 199.410221524766 3 16504 16656 49730 824369252
1020	216084021 69 4866259 4877468 197.490900541353 198.02630625978 2 1028 1028 2056 2113568
1021	216084090 69 4866261 4877470 197.490900541353 198.02630625978 2 1008 1008 2016 2032128
1022	216084159 67 4866261 4877470 197.490900541353 198.02630625978 2 173 174 347 60205
1023	216084226 69 4866262 4877471 197.490900541353 198.02630625978 2 1000 1000 2000 2000000
1024	216084295 615 4866262 4927377 197.2 200 29 0 80000 240000 19200000000
1025	216084910 87 4866262 4877471 197.490900541353 198.02630625978 2 0.00085191441 0.00085191441 0.00170382882 1.4515163239313e-06
1026	216084997 71 4866262 4877471 197.490900541353 198.02630625978 2 16494 16532 33026 545359060
1027	216085068 70 4911797 4923216 199.323987610143 199.762825740027 2 1028 1028 2056 2113568
1028	216085138 70 4911799 4923218 199.323987610143 199.762825740027 2 1008 1008 2016 2032128
1029	216085208 68 4911799 4923218 199.323987610143 199.762825740027 2 185 186 371 68821
1030	216085276 70 4911800 4923219 199.323987610143 199.762825740027 2 1000 1000 2000 2000000
1031	216085346 676 4911800 4927377 196.9 200 32 0 80000 240000 19200000000
1032	216086022 90 4911800 4923219 199.323987610143 199.762825740027 2 0.000851987139 0.000851987139 0.001703974278 1.4517641700428e-06
1033	216086112 72 4911800 4923219 199.323987610143 199.762825740027 2 16648 16687 33335 555611873
1034	216086184 70 4908712 4927066 199.253544853794 199.974319915025 2 1028 1028 2056 2113568
1035	216086254 70 4908714 4927068 199.253544853794 199.974319915025 2 1008 1008 2016 2032128
1036	216086324 68 4908714 4927068 199.253544853794 199.974319915025 2 189 190 379 71821
1037	216086392 70 4908715 4927069 199.253544853794 199.974319915025 2 1000 1000 2000 2000000
1038	216086462 594 4908715 4927377 197.3 200 28 0 80000 240000 19200000000
1039	216087056 90 4908715 4927069 199.253544853794 199.974319915025 2 0.000851764694 0.000851764694 0.001703529388 1.4510061878898e-06
1040	216087146 72 4908715 4927069 199.253544853794 199.974319915025 2 16638 16700 33338 555713044
1041	216087218 590 4880344 4927377 197.3 200 28 0 80000 160000 12800000000
1042	216087808 70 4868815 4875896 197.689607689763 198.000823118082 2 1028 1028 2056 2113568
1043	216087878 70 4868817 4875898 197.689607689763 198.000823118082 2 1008 1008 2016 2032128
1044	216087948 68 4868817 4875898 197.689607689763 198.000823118082 2 160 161 321 51521
1045	216088016 70 4868818 4875899 197.689607689763 198.000823118082 2 1000 1000 2000 2000000
1046	216088086 594 4868818 4927377 197.3 200 28 0 80000 240000 19200000000
1047	216088680 90 4868818 4875899 197.689607689763 198.000823118082 2 0.000851491969 0.000851491969 0.001702983938 1.450077146543e-06
1048	216088770 72 4868818 4875899 197.689607689763 198.000823118082 2 16503 16527 33030 545490738
1049	216088842 40502 4927377 4927377 0.1 200 2000 0 0 0 0
1050	216129344 40502 4927377 4927377 0.1 200 2000 0 0 0 0

