version 2
run Wireless01-0-20200619-15:50:43-28594
attr configname Wireless01
attr datetime 20200619-15:50:43
attr experiment Wireless01
attr inifile omnetpp.ini
attr iterationvars ""
attr iterationvarsf ""
attr measurement ""
attr network WirelessA
attr processid 28594
attr repetition 0
attr replication #0
attr resultdir results
attr runnumber 0
attr seedset 0
param *.T*.ipv4.arp.typename "\"GlobalArp\""
param *.Tserveur.numApps 1
param *.Tserveur.app[0].typename "\"UdpBasicApp\""
param *.Tserveur.app[0].destAddresses "\"Tclient\""
param *.Tserveur.app[0].destPort 5000
param *.Tserveur.app[0].messageLength 1000B
param *.Tserveur.app[0].sendInterval exponential(12ms)
param *.Tserveur.app[0].packetName "\"UDPData\""
param *.Tserveur.wlan[0].radio.displayCommunicationRange false
param *.Tclient*.numApps 1
param *.Tclient*.app[0].typename "\"UdpSink\""
param *.Tclient*.app[0].localPort 5000
param *.T*.wlan[0].typename "\"AckingWirelessInterface\""
param *.T*.wlan[0].mac.useAck false
param *.T*.wlan[0].mac.fullDuplex false
param *.T*.wlan[0].radio.transmitter.communicationRange 1500m
param *.T*.wlan[0].radio.receiver.ignoreInterference true
param *.T*.wlan[0].mac.headerLength 23B
param *.visualizer.mediumVisualizer.displaySignals true
param *.visualizer.sceneVisualizer.descriptionFigure "\"title\""
param *.visualizer.physicalLinkVisualizer.displayLinks true
param *.visualizer.physicalLinkVisualizer.packetFilter "\"UDPData\""
param *.T*.**.bitrate 1Mbps

vector 0 WirelessA.Tserveur.wlan[0].radio radioMode:vector ETV
attr interpolationmode sample-hold
attr source radioModeChanged
attr title "Radio mode, vector"
vector 1 WirelessA.Tclient.wlan[0].radio radioMode:vector ETV
attr interpolationmode sample-hold
attr source radioModeChanged
attr title "Radio mode, vector"
vector 2 WirelessA.Tserveur.wlan[0].radio receptionState:vector ETV
attr interpolationmode sample-hold
attr source receptionStateChanged
attr title "Radio reception state, vector"
vector 3 WirelessA.Tclient.wlan[0].radio receptionState:vector ETV
attr interpolationmode sample-hold
attr source receptionStateChanged
attr title "Radio reception state, vector"
vector 4 WirelessA.Tserveur.app[0] packetSent:vector(packetBytes) ETV
attr interpolationmode none
attr source packetSent
attr title "packets sent, vector(packetBytes)"
vector 5 WirelessA.Tserveur.udp packetSent:vector(packetBytes) ETV
attr interpolationmode none
attr source packetSent
attr title "packets sent, vector(packetBytes)"
vector 6 WirelessA.Tserveur.wlan[0].mac rcvdPkFromHl:vector(packetBytes) ETV
attr interpolationmode none
attr source packetReceivedFromUpper
attr title "packets received from higher layer, vector(packetBytes)"
vector 7 WirelessA.Tserveur.wlan[0].mac.queue packetPushed:vector(packetBytes) ETV
attr interpolationmode none
attr title "packet pushed, vector(packetBytes)"
vector 8 WirelessA.Tserveur.wlan[0].mac.queue queueLength:vector ETV
attr interpolationmode sample-hold
attr source "count(packetPushed) - count(packetPopped) - count(packetRemoved) - count(packetDropped)"
attr title "queue length, vector"
vector 9 WirelessA.Tserveur.wlan[0].mac.queue packetPopped:vector(packetBytes) ETV
attr interpolationmode none
attr title "packet popped, vector(packetBytes)"
vector 10 WirelessA.Tserveur.wlan[0].mac.queue queueingTime:vector ETV
attr interpolationmode none
attr source queueingTime(packetPopped)
attr title "queueing times, vector"
attr unit s
vector 11 WirelessA.Tserveur.wlan[0].radio transmissionState:vector ETV
attr interpolationmode sample-hold
attr source transmissionStateChanged
attr title "Radio transmission state, vector"
vector 12 WirelessA.Tserveur.wlan[0].mac sentDownPk:vector(packetBytes) ETV
attr interpolationmode none
attr source packetSentToLower
attr title "packets sent to lower layer, vector(packetBytes)"
vector 13 WirelessA.Tclient.wlan[0].mac rcvdPkFromLl:vector(packetBytes) ETV
attr interpolationmode none
attr source packetReceivedFromLower
attr title "packets received from lower layer, vector(packetBytes)"
vector 14 WirelessA.Tclient.wlan[0].mac passedUpPk:vector(packetBytes) ETV
attr interpolationmode none
attr source packetSentToUpper
attr title "packets passed to higher layer, vector(packetBytes)"
vector 15 WirelessA.Tclient.udp packetReceived:vector(packetBytes) ETV
attr interpolationmode none
attr source packetReceived
attr title "packets received, vector(packetBytes)"
vector 16 WirelessA.Tclient.udp passedUpPk:vector(count) ETV
attr interpolationmode none
attr source packetSentToUpper
attr title "packets passed up, vector(count)"
vector 17 WirelessA.Tclient.app[0] packetReceived:vector(packetBytes) ETV
attr interpolationmode none
attr source packetReceived
attr title "packets received, vector(packetBytes)"
vector 18 WirelessA.Tclient.app[0] endToEndDelay:vector ETV
attr interpolationmode none
attr source dataAge(packetReceived)
attr title "end-to-end delay, vector"
attr unit s
vector 19 WirelessA.Tclient.app[0] rcvdPkSeqNo:vector ETV
attr interpolationmode none
attr source appPkSeqNo(packetReceived)
attr title "received packet sequence number, vector"
vector 20 WirelessA.Tclient.app[0] throughput:vector ETV
attr source throughput(packetReceived)
attr title "throughput, vector"
attr unit bps
vector 21 WirelessA.Tserveur.app[0] throughput:vector ETV
attr source throughput(packetReceived)
attr title "throughput, vector"
attr unit bps
0	0	0	0
0	0	0	0
0	0	0	2
0	8	0.022315250545	3
0	15	0.030819250545	2
0	15	0.030819250545	3
0	23	0.039323250545	2
0	33	0.041385743993	3
0	41	0.049889743993	2
0	41	0.049889743993	3
0	49	0.058393743993	2
0	60	0.07497426742	3
0	63	0.08347826742	2
0	73	0.114753214779	3
0	80	0.123257214779	2
0	80	0.123257214779	3
0	88	0.131761214779	2
0	98	0.139383193449	3
0	102	0.147887193449	2
0	111	0.148415282809	3
0	114	0.156919282809	2
0	124	0.158488477044	3
0	128	0.166992477044	2
0	138	0.189667526074	3
0	153	0.198171526074	2
0	153	0.198171526074	3
0	161	0.206675526074	2
0	161	0.206675526074	3
0	174	0.215179526074	2
0	174	0.215179526074	3
0	183	0.223683526074	2
0	183	0.223683526074	3
0	196	0.232187526074	2
0	196	0.232187526074	3
0	205	0.240691526074	2
0	216	0.255893823874	3
0	219	0.264397823874	2
0	229	0.302036486304	3
0	232	0.310540486304	2
0	242	0.321299360989	3
0	249	0.329803360989	2
0	249	0.329803360989	3
0	257	0.338307360989	2
0	267	0.346924946193	3
0	275	0.355428946193	2
0	275	0.355428946193	3
0	291	0.363932946193	2
0	291	0.363932946193	3
0	300	0.372436946193	2
0	300	0.372436946193	3
0	309	0.380940946193	2
0	320	0.3972824235	3
0	323	0.4057864235	2
0	332	0.406136351001	3
0	339	0.414640351001	2
0	339	0.414640351001	3
0	352	0.423144351001	2
0	352	0.423144351001	3
0	361	0.431648351001	2
0	371	0.434109561779	3
0	379	0.442613561779	2
0	379	0.442613561779	3
0	387	0.451117561779	2
0	396	0.451502567324	3
0	404	0.460006567324	2
0	404	0.460006567324	3
0	417	0.468510567324	2
0	417	0.468510567324	3
0	430	0.477014567324	2
0	430	0.477014567324	3
0	439	0.485518567324	2
0	448	0.486145297277	3
0	452	0.494649297277	2
0	463	0.520680277532	3
0	466	0.529184277532	2
0	475	0.534421944988	3
0	483	0.542925944988	2
0	483	0.542925944988	3
0	495	0.551429944988	2
0	495	0.551429944988	3
0	504	0.559933944988	2
0	513	0.561015849403	3
0	521	0.569519849403	2
0	521	0.569519849403	3
0	534	0.578023849403	2
0	534	0.578023849403	3
0	543	0.586527849403	2
0	553	0.588275351848	3
0	565	0.596779351848	2
0	565	0.596779351848	3
0	581	0.605283351848	2
0	581	0.605283351848	3
0	594	0.613787351848	2
0	594	0.613787351848	3
0	607	0.622291351848	2
0	607	0.622291351848	3
0	616	0.630795351848	2
0	616	0.630795351848	3
0	625	0.639299351848	2
0	625	0.639299351848	3
0	634	0.647803351848	2
0	645	0.673253932282	3
0	660	0.681757932282	2
0	660	0.681757932282	3
0	668	0.690261932282	2
0	668	0.690261932282	3
0	685	0.698765932282	2
0	685	0.698765932282	3
0	702	0.707269932282	2
0	702	0.707269932282	3
0	719	0.715773932282	2
0	719	0.715773932282	3
0	732	0.724277932282	2
0	732	0.724277932282	3
0	749	0.732781932282	2
0	749	0.732781932282	3
0	762	0.741285932282	2
0	762	0.741285932282	3
0	771	0.749789932282	2
0	771	0.749789932282	3
0	788	0.758293932282	2
0	788	0.758293932282	3
0	797	0.766797932282	2
0	797	0.766797932282	3
0	806	0.775301932282	2
0	806	0.775301932282	3
0	823	0.783805932282	2
0	823	0.783805932282	3
0	832	0.792309932282	2
0	832	0.792309932282	3
0	841	0.800813932282	2
0	841	0.800813932282	3
0	850	0.809317932282	2
0	850	0.809317932282	3
0	859	0.817821932282	2
0	859	0.817821932282	3
0	872	0.826325932282	2
0	872	0.826325932282	3
0	885	0.834829932282	2
0	885	0.834829932282	3
0	894	0.843333932282	2
0	905	0.875445285936	3
0	908	0.883949285936	2
0	917	0.886587027899	3
0	921	0.895091027899	2
0	930	0.902717971165	3
0	946	0.911221971165	2
0	946	0.911221971165	3
0	966	0.919725971165	2
0	966	0.919725971165	3
0	983	0.928229971165	2
0	983	0.928229971165	3
0	992	0.936733971165	2
0	992	0.936733971165	3
0	1005	0.945237971165	2
0	1005	0.945237971165	3
0	1018	0.953741971165	2
0	1018	0.953741971165	3
0	1031	0.962245971165	2
0	1031	0.962245971165	3
0	1048	0.970749971165	2
0	1048	0.970749971165	3
0	1061	0.979253971165	2
0	1061	0.979253971165	3
0	1070	0.987757971165	2
0	1070	0.987757971165	3
0	1079	0.996261971165	2
0	1079	0.996261971165	3
0	1088	1.004765971165	2
0	1088	1.004765971165	3
0	1105	1.013269971165	2
0	1105	1.013269971165	3
0	1114	1.021773971165	2
0	1114	1.021773971165	3
0	1131	1.030277971165	2
0	1131	1.030277971165	3
0	1140	1.038781971165	2
0	1140	1.038781971165	3
0	1157	1.047285971165	2
0	1157	1.047285971165	3
0	1170	1.055789971165	2
0	1170	1.055789971165	3
0	1187	1.064293971165	2
0	1187	1.064293971165	3
0	1196	1.072797971165	2
0	1196	1.072797971165	3
0	1213	1.081301971165	2
0	1213	1.081301971165	3
0	1222	1.089805971165	2
0	1222	1.089805971165	3
0	1239	1.098309971165	2
0	1239	1.098309971165	3
0	1248	1.106813971165	2
0	1248	1.106813971165	3
0	1261	1.115317971165	2
0	1261	1.115317971165	3
0	1270	1.123821971165	2
0	1270	1.123821971165	3
0	1279	1.132325971165	2
0	1279	1.132325971165	3
0	1288	1.140829971165	2
0	1288	1.140829971165	3
0	1297	1.149333971165	2
0	1307	1.152161667644	3
0	1315	1.160665667644	2
0	1315	1.160665667644	3
0	1327	1.169169667644	2
0	1327	1.169169667644	3
0	1340	1.177673667644	2
0	1340	1.177673667644	3
0	1349	1.186177667644	2
0	1358	1.186844375116	3
0	1366	1.195348375116	2
0	1366	1.195348375116	3
0	1375	1.203852375116	2
0	1386	1.226500794914	3
0	1393	1.235004794914	2
0	1393	1.235004794914	3
0	1401	1.243508794914	2
0	1412	1.256093801801	3
0	1415	1.264597801801	2
0	1424	1.270520664608	3
0	1432	1.279024664608	2
0	1432	1.279024664608	3
0	1440	1.287528664608	2
0	1450	1.294927972662	3
0	1458	1.303431972662	2
0	1458	1.303431972662	3
0	1466	1.311935972662	2
0	1477	1.326542190388	3
0	1480	1.335046190388	2
0	1489	1.336988620304	3
0	1493	1.345492620304	2
0	1503	1.362606585704	3
0	1506	1.371110585704	2
0	1515	1.376759180908	3
0	1519	1.385263180908	2
0	1528	1.392262092134	3
0	1536	1.400766092134	2
0	1536	1.400766092134	3
0	1544	1.409270092134	2
0	1555	1.438117305957	3
0	1558	1.446621305957	2
0	1567	1.450510870085	3
0	1575	1.459014870085	2
0	1575	1.459014870085	3
0	1583	1.467518870085	2
0	1592	1.468316456532	3
0	1604	1.476820456532	2
0	1604	1.476820456532	3
0	1613	1.485324456532	2
0	1613	1.485324456532	3
0	1630	1.493828456532	2
0	1630	1.493828456532	3
0	1643	1.502332456532	2
0	1643	1.502332456532	3
0	1660	1.510836456532	2
0	1660	1.510836456532	3
0	1673	1.519340456532	2
0	1673	1.519340456532	3
0	1686	1.527844456532	2
0	1686	1.527844456532	3
0	1699	1.536348456532	2
0	1699	1.536348456532	3
0	1708	1.544852456532	2
0	1708	1.544852456532	3
0	1721	1.553356456532	2
0	1721	1.553356456532	3
0	1734	1.561860456532	2
0	1734	1.561860456532	3
0	1743	1.570364456532	2
0	1743	1.570364456532	3
0	1760	1.578868456532	2
0	1760	1.578868456532	3
0	1769	1.587372456532	2
0	1769	1.587372456532	3
0	1778	1.595876456532	2
0	1788	1.604662398509	3
0	1796	1.613166398509	2
0	1796	1.613166398509	3
0	1808	1.621670398509	2
0	1808	1.621670398509	3
0	1817	1.630174398509	2
0	1828	1.64372898762	3
0	1831	1.65223298762	2
0	1841	1.663419758555	3
0	1844	1.671923758555	2
0	1853	1.678023992499	3
0	1861	1.686527992499	2
0	1861	1.686527992499	3
0	1869	1.695031992499	2
0	1880	1.709522729784	3
0	1883	1.718026729784	2
0	1892	1.724554020083	3
0	1896	1.733058020083	2
0	1906	1.805738706322	3
0	1913	1.814242706322	2
0	1913	1.814242706322	3
0	1921	1.822746706322	2
0	1931	1.831992053168	3
0	1939	1.840496053168	2
0	1939	1.840496053168	3
0	1955	1.849000053168	2
0	1955	1.849000053168	3
0	1964	1.857504053168	2
0	1964	1.857504053168	3
0	1973	1.866008053168	2
0	1983	1.869784908311	3
0	1987	1.878288908311	2
0	1997	1.889545537527	3
0	2000	1.898049537527	2
0	2009	1.899648109068	3
0	2021	1.908152109068	2
0	2021	1.908152109068	3
0	2029	1.916656109068	2
0	2029	1.916656109068	3
0	2042	1.925160109068	2
0	2042	1.925160109068	3
0	2055	1.933664109068	2
0	2055	1.933664109068	3
0	2064	1.942168109068	2
0	2074	1.943743516144	3
0	2078	1.952247516144	2
0	2088	1.967896788978	3
0	2091	1.976400788978	2
0	2101	2.012416316081	3
0	2104	2.020920316081	2
0	2114	2.035655242931	3
0	2125	2.044159242931	2
0	2125	2.044159242931	3
0	2133	2.052663242931	2
0	2133	2.052663242931	3
0	2150	2.061167242931	2
0	2150	2.061167242931	3
0	2167	2.069671242931	2
0	2167	2.069671242931	3
0	2184	2.078175242931	2
0	2184	2.078175242931	3
0	2193	2.086679242931	2
0	2193	2.086679242931	3
0	2210	2.095183242931	2
0	2210	2.095183242931	3
0	2223	2.103687242931	2
0	2223	2.103687242931	3
0	2232	2.112191242931	2
0	2232	2.112191242931	3
0	2241	2.120695242931	2
0	2241	2.120695242931	3
0	2250	2.129199242931	2
0	2250	2.129199242931	3
0	2263	2.137703242931	2
0	2263	2.137703242931	3
0	2280	2.146207242931	2
0	2280	2.146207242931	3
0	2293	2.154711242931	2
0	2293	2.154711242931	3
0	2306	2.163215242931	2
0	2306	2.163215242931	3
0	2319	2.171719242931	2
0	2319	2.171719242931	3
0	2332	2.180223242931	2
0	2332	2.180223242931	3
0	2341	2.188727242931	2
0	2341	2.188727242931	3
0	2350	2.197231242931	2
0	2360	2.205260755149	3
0	2364	2.213764755149	2
0	2373	2.21668271164	3
0	2377	2.22518671164	2
0	2386	2.225887667495	3
0	2389	2.234391667495	2
0	2399	2.236584210418	3
0	2403	2.245088210418	2
0	2412	2.252301634874	3
0	2420	2.260805634874	2
0	2420	2.260805634874	3
0	2440	2.269309634874	2
0	2440	2.269309634874	3
0	2449	2.277813634874	2
0	2449	2.277813634874	3
0	2458	2.286317634874	2
0	2458	2.286317634874	3
0	2467	2.294821634874	2
0	2477	2.302850240863	3
0	2481	2.311354240863	2
0	2490	2.318994410062	3
0	2498	2.327498410062	2
0	2498	2.327498410062	3
0	2518	2.336002410062	2
0	2518	2.336002410062	3
0	2531	2.344506410062	2
0	2531	2.344506410062	3
0	2544	2.353010410062	2
0	2544	2.353010410062	3
0	2557	2.361514410062	2
0	2557	2.361514410062	3
0	2582	2.370018410062	2
0	2582	2.370018410062	3
0	2591	2.378522410062	2
0	2591	2.378522410062	3
0	2604	2.387026410062	2
0	2604	2.387026410062	3
0	2617	2.395530410062	2
0	2617	2.395530410062	3
0	2630	2.404034410062	2
0	2630	2.404034410062	3
0	2639	2.412538410062	2
0	2639	2.412538410062	3
0	2648	2.421042410062	2
0	2648	2.421042410062	3
0	2661	2.429546410062	2
0	2661	2.429546410062	3
0	2670	2.438050410062	2
0	2670	2.438050410062	3
0	2679	2.446554410062	2
0	2679	2.446554410062	3
0	2688	2.455058410062	2
0	2699	2.482298732409	3
0	2706	2.490802732409	2
0	2706	2.490802732409	3
0	2718	2.499306732409	2
0	2718	2.499306732409	3
0	2735	2.507810732409	2
0	2735	2.507810732409	3
0	2744	2.516314732409	2
0	2744	2.516314732409	3
0	2761	2.524818732409	2
0	2761	2.524818732409	3
0	2774	2.533322732409	2
0	2774	2.533322732409	3
0	2787	2.541826732409	2
0	2787	2.541826732409	3
0	2796	2.550330732409	2
0	2796	2.550330732409	3
0	2805	2.558834732409	2
0	2815	2.561669400952	3
0	2819	2.570173400952	2
0	2828	2.573567452467	3
0	2832	2.582071452467	2
0	2842	2.598297307358	3
0	2849	2.606801307358	2
0	2849	2.606801307358	3
0	2857	2.615305307358	2
0	2867	2.621328836518	3
0	2875	2.629832836518	2
0	2875	2.629832836518	3
0	2883	2.638336836518	2
0	2894	2.660431225778	3
0	2897	2.668935225778	2
0	2906	2.674388585179	3
0	2914	2.682892585179	2
0	2914	2.682892585179	3
0	2922	2.691396585179	2
0	2933	2.712634970432	3
0	2936	2.721138970432	2
0	2945	2.728385066348	3
0	2957	2.736889066348	2
0	2957	2.736889066348	3
0	2973	2.745393066348	2
0	2973	2.745393066348	3
0	2990	2.753897066348	2
0	2990	2.753897066348	3
0	3003	2.762401066348	2
0	3003	2.762401066348	3
0	3020	2.770905066348	2
0	3020	2.770905066348	3
0	3029	2.779409066348	2
0	3029	2.779409066348	3
0	3042	2.787913066348	2
0	3042	2.787913066348	3
0	3051	2.796417066348	2
0	3051	2.796417066348	3
0	3064	2.804921066348	2
0	3064	2.804921066348	3
0	3077	2.813425066348	2
0	3077	2.813425066348	3
0	3094	2.821929066348	2
0	3094	2.821929066348	3
0	3103	2.830433066348	2
0	3103	2.830433066348	3
0	3120	2.838937066348	2
0	3120	2.838937066348	3
0	3129	2.847441066348	2
0	3129	2.847441066348	3
0	3150	2.855945066348	2
0	3150	2.855945066348	3
0	3163	2.864449066348	2
0	3163	2.864449066348	3
0	3176	2.872953066348	2
0	3176	2.872953066348	3
0	3185	2.881457066348	2
0	3185	2.881457066348	3
0	3194	2.889961066348	2
0	3194	2.889961066348	3
0	3203	2.898465066348	2
0	3203	2.898465066348	3
0	3216	2.906969066348	2
0	3216	2.906969066348	3
0	3225	2.915473066348	2
0	3225	2.915473066348	3
0	3238	2.923977066348	2
0	3238	2.923977066348	3
0	3247	2.932481066348	2
0	3256	2.933378235419	3
0	3260	2.941882235419	2
0	3271	2.961464138947	3
0	3278	2.969968138947	2
0	3278	2.969968138947	3
0	3290	2.978472138947	2
0	3290	2.978472138947	3
0	3303	2.986976138947	2
0	3303	2.986976138947	3
0	3312	2.995480138947	2
0	3323	3.021910680853	3
0	3334	3.030414680853	2
0	3334	3.030414680853	3
0	3350	3.038918680853	2
0	3350	3.038918680853	3
0	3359	3.047422680853	2
0	3359	3.047422680853	3
0	3368	3.055926680853	2
0	3368	3.055926680853	3
0	3381	3.064430680853	2
0	3381	3.064430680853	3
0	3390	3.072934680853	2
0	3400	3.075961909561	3
0	3404	3.084465909561	2
0	3413	3.094415854135	3
0	3421	3.102919854135	2
0	3421	3.102919854135	3
0	3437	3.111423854135	2
0	3437	3.111423854135	3
0	3450	3.119927854135	2
0	3450	3.119927854135	3
0	3459	3.128431854135	2
0	3459	3.128431854135	3
0	3468	3.136935854135	2
0	3479	3.163280421768	3
0	3482	3.171784421768	2
0	3492	3.188379100639	3
0	3499	3.196883100639	2
0	3499	3.196883100639	3
0	3507	3.205387100639	2
0	3518	3.232438910766	3
0	3525	3.240942910766	2
0	3525	3.240942910766	3
0	3533	3.249446910766	2
0	3544	3.271388244226	3
0	3547	3.279892244226	2
0	3557	3.305427926547	3
0	3560	3.313931926547	2
0	3570	3.324693431704	3
0	3573	3.333197431704	2
0	3582	3.336638995424	3
0	3586	3.345142995424	2
0	3596	3.361524132981	3
0	3603	3.370028132981	2
0	3603	3.370028132981	3
0	3611	3.378532132981	2
0	3621	3.388366393003	3
0	3625	3.396870393003	2
0	3634	3.399910536122	3
0	3650	3.408414536122	2
0	3650	3.408414536122	3
0	3658	3.416918536122	2
0	3658	3.416918536122	3
0	3667	3.425422536122	2
0	3667	3.425422536122	3
0	3676	3.433926536122	2
0	3687	3.455208273796	3
0	3694	3.463712273796	2
0	3694	3.463712273796	3
0	3706	3.472216273796	2
0	3706	3.472216273796	3
0	3715	3.480720273796	2
0	3725	3.483515408701	3
0	3737	3.492019408701	2
0	3737	3.492019408701	3
0	3745	3.500523408701	2
0	3745	3.500523408701	3
0	3754	3.509027408701	2
0	3764	3.511519205519	3
0	3772	3.520023205519	2
0	3772	3.520023205519	3
0	3792	3.528527205519	2
0	3792	3.528527205519	3
0	3801	3.537031205519	2
0	3801	3.537031205519	3
0	3810	3.545535205519	2
0	3810	3.545535205519	3
0	3823	3.554039205519	2
0	3823	3.554039205519	3
0	3832	3.562543205519	2
0	3843	3.594011881851	3
0	3846	3.602515881851	2
0	3856	3.632891437454	3
0	3859	3.641395437454	2
0	3869	3.661336088421	3
0	3872	3.669840088421	2
0	3881	3.679185245473	3
0	3893	3.687689245473	2
0	3893	3.687689245473	3
0	3909	3.696193245473	2
0	3909	3.696193245473	3
0	3926	3.704697245473	2
0	3926	3.704697245473	3
0	3943	3.713201245473	2
0	3943	3.713201245473	3
0	3952	3.721705245473	2
0	3952	3.721705245473	3
0	3965	3.730209245473	2
0	3965	3.730209245473	3
0	3986	3.738713245473	2
0	3986	3.738713245473	3
0	3995	3.747217245473	2
0	3995	3.747217245473	3
0	4012	3.755721245473	2
0	4012	3.755721245473	3
0	4025	3.764225245473	2
0	4025	3.764225245473	3
0	4038	3.772729245473	2
0	4038	3.772729245473	3
0	4047	3.781233245473	2
0	4047	3.781233245473	3
0	4056	3.789737245473	2
0	4056	3.789737245473	3
0	4069	3.798241245473	2
0	4069	3.798241245473	3
0	4082	3.806745245473	2
0	4082	3.806745245473	3
0	4103	3.815249245473	2
0	4103	3.815249245473	3
0	4120	3.823753245473	2
0	4120	3.823753245473	3
0	4133	3.832257245473	2
0	4133	3.832257245473	3
0	4142	3.840761245473	2
0	4142	3.840761245473	3
0	4155	3.849265245473	2
0	4155	3.849265245473	3
0	4168	3.857769245473	2
0	4168	3.857769245473	3
0	4185	3.866273245473	2
0	4185	3.866273245473	3
0	4198	3.874777245473	2
0	4198	3.874777245473	3
0	4207	3.883281245473	2
0	4207	3.883281245473	3
0	4224	3.891785245473	2
0	4224	3.891785245473	3
0	4233	3.900289245473	2
0	4233	3.900289245473	3
0	4246	3.908793245473	2
0	4246	3.908793245473	3
0	4255	3.917297245473	2
0	4255	3.917297245473	3
0	4268	3.925801245473	2
0	4268	3.925801245473	3
0	4277	3.934305245473	2
0	4277	3.934305245473	3
0	4294	3.942809245473	2
0	4294	3.942809245473	3
0	4307	3.951313245473	2
0	4307	3.951313245473	3
0	4320	3.959817245473	2
0	4320	3.959817245473	3
0	4337	3.968321245473	2
0	4337	3.968321245473	3
0	4350	3.976825245473	2
0	4350	3.976825245473	3
0	4367	3.985329245473	2
0	4367	3.985329245473	3
0	4376	3.993833245473	2
0	4376	3.993833245473	3
0	4393	4.002337245473	2
0	4393	4.002337245473	3
0	4406	4.010841245473	2
0	4406	4.010841245473	3
0	4419	4.019345245473	2
0	4419	4.019345245473	3
0	4432	4.027849245473	2
0	4432	4.027849245473	3
0	4441	4.036353245473	2
0	4441	4.036353245473	3
0	4450	4.044857245473	2
0	4450	4.044857245473	3
0	4459	4.053361245473	2
0	4459	4.053361245473	3
0	4472	4.061865245473	2
0	4472	4.061865245473	3
0	4481	4.070369245473	2
0	4481	4.070369245473	3
0	4498	4.078873245473	2
0	4498	4.078873245473	3
0	4511	4.087377245473	2
0	4511	4.087377245473	3
0	4524	4.095881245473	2
0	4524	4.095881245473	3
0	4537	4.104385245473	2
0	4537	4.104385245473	3
0	4550	4.112889245473	2
0	4550	4.112889245473	3
0	4567	4.121393245473	2
0	4567	4.121393245473	3
0	4580	4.129897245473	2
0	4580	4.129897245473	3
0	4589	4.138401245473	2
0	4589	4.138401245473	3
0	4598	4.146905245473	2
0	4598	4.146905245473	3
0	4607	4.155409245473	2
0	4607	4.155409245473	3
0	4624	4.163913245473	2
0	4624	4.163913245473	3
0	4633	4.172417245473	2
0	4633	4.172417245473	3
0	4642	4.180921245473	2
0	4642	4.180921245473	3
0	4651	4.189425245473	2
0	4660	4.190880830901	3
0	4664	4.199384830901	2
0	4674	4.200298875136	3
0	4681	4.208802875136	2
0	4681	4.208802875136	3
0	4690	4.217306875136	2
0	4701	4.233273729561	3
0	4708	4.241777729561	2
0	4708	4.241777729561	3
0	4716	4.250281729561	2
0	4726	4.256092523779	3
0	4734	4.264596523779	2
0	4734	4.264596523779	3
0	4742	4.273100523779	2
0	4753	4.290329389311	3
0	4756	4.298833389311	2
0	4765	4.30438455365	3
0	4769	4.31288855365	2
0	4778	4.318817119056	3
0	4786	4.327321119056	2
0	4786	4.327321119056	3
0	4794	4.335825119056	2
0	4804	4.34054749041	3
0	4808	4.34905149041	2
0	4817	4.352676720367	3
0	4829	4.361180720367	2
0	4829	4.361180720367	3
0	4837	4.369684720367	2
0	4837	4.369684720367	3
0	4850	4.378188720367	2
0	4850	4.378188720367	3
0	4859	4.386692720367	2
0	4870	4.415547956405	3
0	4877	4.424051956405	2
0	4877	4.424051956405	3
0	4885	4.432555956405	2
0	4894	4.433628918575	3
0	4898	4.442132918575	2
0	4909	4.457028641517	3
0	4916	4.465532641517	2
0	4916	4.465532641517	3
0	4924	4.474036641517	2
0	4935	4.500768643121	3
0	4938	4.509272643121	2
0	4947	4.511057864352	3
0	4951	4.519561864352	2
0	4961	4.531686696093	3
0	4964	4.540190696093	2
0	4974	4.560428853566	3
0	4977	4.568932853566	2
0	4987	4.580711673023	3
0	4994	4.589215673023	2
0	4994	4.589215673023	3
0	5006	4.597719673023	2
0	5006	4.597719673023	3
0	5023	4.606223673023	2
0	5023	4.606223673023	3
0	5040	4.614727673023	2
0	5040	4.614727673023	3
0	5049	4.623231673023	2
0	5049	4.623231673023	3
0	5058	4.631735673023	2
0	5058	4.631735673023	3
0	5075	4.640239673023	2
0	5075	4.640239673023	3
0	5084	4.648743673023	2
0	5084	4.648743673023	3
0	5093	4.657247673023	2
0	5104	4.673199466141	3
0	5111	4.681703466141	2
0	5111	4.681703466141	3
0	5131	4.690207466141	2
0	5131	4.690207466141	3
0	5144	4.698711466141	2
0	5144	4.698711466141	3
0	5153	4.707215466141	2
0	5153	4.707215466141	3
0	5162	4.715719466141	2
0	5162	4.715719466141	3
0	5171	4.724223466141	2
0	5180	4.72436341736	3
0	5188	4.73286741736	2
0	5188	4.73286741736	3
0	5197	4.74137141736	2
0	5208	4.760493645572	3
0	5211	4.768997645572	2
0	5221	4.784929175819	3
0	5228	4.793433175819	2
0	5228	4.793433175819	3
0	5244	4.801937175819	2
0	5244	4.801937175819	3
0	5253	4.810441175819	2
0	5253	4.810441175819	3
0	5278	4.818945175819	2
0	5278	4.818945175819	3
0	5299	4.827449175819	2
0	5299	4.827449175819	3
0	5324	4.835953175819	2
0	5324	4.835953175819	3
0	5333	4.844457175819	2
0	5333	4.844457175819	3
0	5346	4.852961175819	2
0	5346	4.852961175819	3
0	5355	4.861465175819	2
0	5355	4.861465175819	3
0	5364	4.869969175819	2
0	5364	4.869969175819	3
0	5373	4.878473175819	2
0	5373	4.878473175819	3
0	5382	4.886977175819	2
0	5382	4.886977175819	3
0	5395	4.895481175819	2
0	5395	4.895481175819	3
0	5404	4.903985175819	2
0	5404	4.903985175819	3
0	5413	4.912489175819	2
0	5413	4.912489175819	3
0	5422	4.920993175819	2
0	5422	4.920993175819	3
0	5431	4.929497175819	2
0	5442	4.944167199513	3
0	5453	4.952671199513	2
0	5453	4.952671199513	3
0	5461	4.961175199513	2
0	5461	4.961175199513	3
0	5474	4.969679199513	2
0	5474	4.969679199513	3
0	5487	4.978183199513	2
0	5487	4.978183199513	3
0	5496	4.986687199513	2
0	5507	5.027493908655	3
0	5514	5.035997908655	2
0	5514	5.035997908655	3
0	5522	5.044501908655	2
0	5532	5.046651584987	3
0	5544	5.055155584987	2
0	5544	5.055155584987	3
0	5552	5.063659584987	2
0	5552	5.063659584987	3
0	5569	5.072163584987	2
0	5569	5.072163584987	3
0	5578	5.080667584987	2
0	5578	5.080667584987	3
0	5591	5.089171584987	2
0	5591	5.089171584987	3
0	5604	5.097675584987	2
0	5604	5.097675584987	3
0	5617	5.106179584987	2
0	5617	5.106179584987	3
0	5634	5.114683584987	2
0	5634	5.114683584987	3
0	5643	5.123187584987	2
0	5643	5.123187584987	3
0	5656	5.131691584987	2
0	5656	5.131691584987	3
0	5673	5.140195584987	2
0	5673	5.140195584987	3
0	5682	5.148699584987	2
0	5682	5.148699584987	3
0	5691	5.157203584987	2
0	5701	5.160437370677	3
0	5705	5.168941370677	2
0	5715	5.191515284423	3
0	5726	5.200019284423	2
0	5726	5.200019284423	3
0	5738	5.208523284423	2
0	5738	5.208523284423	3
0	5747	5.217027284423	2
0	5747	5.217027284423	3
0	5760	5.225531284423	2
0	5760	5.225531284423	3
0	5769	5.234035284423	2
0	5780	5.271442763227	3
0	5783	5.279946763227	2
0	5793	5.313117031698	3
0	5796	5.321621031698	2
0	5806	5.341357048915	3
0	5813	5.349861048915	2
0	5813	5.349861048915	3
0	5821	5.358365048915	2
0	5832	5.403534900516	3
0	5843	5.412038900516	2
0	5843	5.412038900516	3
0	5851	5.420542900516	2
0	5851	5.420542900516	3
0	5860	5.429046900516	2
0	5871	5.444500763421	3
0	5878	5.453004763421	2
0	5878	5.453004763421	3
0	5886	5.461508763421	2
0	5895	5.461735790769	3
0	5903	5.470239790769	2
0	5903	5.470239790769	3
0	5916	5.478743790769	2
0	5916	5.478743790769	3
0	5925	5.487247790769	2
0	5936	5.503817316906	3
0	5943	5.512321316906	2
0	5943	5.512321316906	3
0	5959	5.520825316906	2
0	5959	5.520825316906	3
0	5968	5.529329316906	2
0	5968	5.529329316906	3
0	5981	5.537833316906	2
0	5981	5.537833316906	3
0	5998	5.546337316906	2
0	5998	5.546337316906	3
0	6015	5.554841316906	2
0	6015	5.554841316906	3
0	6024	5.563345316906	2
0	6024	5.563345316906	3
0	6033	5.571849316906	2
0	6033	5.571849316906	3
0	6050	5.580353316906	2
0	6050	5.580353316906	3
0	6063	5.588857316906	2
0	6063	5.588857316906	3
0	6072	5.597361316906	2
0	6072	5.597361316906	3
0	6081	5.605865316906	2
0	6092	5.620445508973	3
0	6095	5.628949508973	2
0	6104	5.632506896756	3
0	6108	5.641010896756	2
0	6118	5.656741910795	3
0	6121	5.665245910795	2
0	6131	5.690544851555	3
0	6134	5.699048851555	2
0	6143	5.707217153638	3
0	6147	5.715721153638	2
0	6156	5.721647841775	3
0	6160	5.730151841775	2
0	6170	5.762939170346	3
0	6173	5.771443170346	2
0	6183	5.825160723422	3
0	6194	5.833664723422	2
0	6194	5.833664723422	3
0	6210	5.842168723422	2
0	6210	5.842168723422	3
0	6227	5.850672723422	2
0	6227	5.850672723422	3
0	6240	5.859176723422	2
0	6240	5.859176723422	3
0	6253	5.867680723422	2
0	6253	5.867680723422	3
0	6262	5.876184723422	2
0	6262	5.876184723422	3
0	6271	5.884688723422	2
0	6271	5.884688723422	3
0	6284	5.893192723422	2
0	6284	5.893192723422	3
0	6293	5.901696723422	2
0	6293	5.901696723422	3
0	6302	5.910200723422	2
0	6313	5.932798914007	3
0	6316	5.941302914007	2
0	6325	5.942298223142	3
0	6332	5.950802223142	2
0	6332	5.950802223142	3
0	6345	5.959306223142	2
0	6345	5.959306223142	3
0	6354	5.967810223142	2
0	6365	5.984167464234	3
0	6372	5.992671464234	2
0	6372	5.992671464234	3
0	6384	6.001175464234	2
0	6384	6.001175464234	3
0	6397	6.009679464234	2
0	6397	6.009679464234	3
0	6414	6.018183464234	2
0	6414	6.018183464234	3
0	6427	6.026687464234	2
0	6427	6.026687464234	3
0	6444	6.035191464234	2
0	6444	6.035191464234	3
0	6457	6.043695464234	2
0	6457	6.043695464234	3
0	6470	6.052199464234	2
0	6470	6.052199464234	3
0	6479	6.060703464234	2
0	6479	6.060703464234	3
0	6492	6.069207464234	2
0	6492	6.069207464234	3
0	6505	6.077711464234	2
0	6505	6.077711464234	3
0	6514	6.086215464234	2
0	6514	6.086215464234	3
0	6523	6.094719464234	2
0	6533	6.100694534439	3
0	6537	6.109198534439	2
0	6547	6.124488285402	3
0	6558	6.132992285402	2
0	6558	6.132992285402	3
0	6574	6.141496285402	2
0	6574	6.141496285402	3
0	6587	6.150000285402	2
0	6587	6.150000285402	3
0	6600	6.158504285402	2
0	6600	6.158504285402	3
0	6609	6.167008285402	2
0	6609	6.167008285402	3
0	6622	6.175512285402	2
0	6622	6.175512285402	3
0	6635	6.184016285402	2
0	6635	6.184016285402	3
0	6644	6.192520285402	2
0	6644	6.192520285402	3
0	6657	6.201024285402	2
0	6657	6.201024285402	3
0	6674	6.209528285402	2
0	6674	6.209528285402	3
0	6683	6.218032285402	2
0	6683	6.218032285402	3
0	6696	6.226536285402	2
0	6696	6.226536285402	3
0	6705	6.235040285402	2
0	6716	6.24524912426	3
0	6719	6.25375312426	2
0	6728	6.254663804623	3
0	6739	6.263167804623	2
0	6739	6.263167804623	3
0	6748	6.271671804623	2
0	6748	6.271671804623	3
0	6769	6.280175804623	2
0	6769	6.280175804623	3
0	6782	6.288679804623	2
0	6782	6.288679804623	3
0	6791	6.297183804623	2
0	6791	6.297183804623	3
0	6800	6.305687804623	2
0	6800	6.305687804623	3
0	6809	6.314191804623	2
0	6819	6.319282052842	3
0	6835	6.327786052842	2
0	6835	6.327786052842	3
0	6847	6.336290052842	2
0	6847	6.336290052842	3
0	6860	6.344794052842	2
0	6860	6.344794052842	3
0	6881	6.353298052842	2
0	6881	6.353298052842	3
0	6890	6.361802052842	2
0	6890	6.361802052842	3
0	6903	6.370306052842	2
0	6903	6.370306052842	3
0	6916	6.378810052842	2
0	6916	6.378810052842	3
0	6925	6.387314052842	2
0	6925	6.387314052842	3
0	6938	6.395818052842	2
0	6938	6.395818052842	3
0	6947	6.404322052842	2
0	6947	6.404322052842	3
0	6956	6.412826052842	2
0	6956	6.412826052842	3
0	6965	6.421330052842	2
0	6975	6.425536554306	3
0	6983	6.434040554306	2
0	6983	6.434040554306	3
0	6995	6.442544554306	2
0	6995	6.442544554306	3
0	7008	6.451048554306	2
0	7008	6.451048554306	3
0	7017	6.459552554306	2
0	7026	6.45974077649	3
0	7030	6.46824477649	2
0	7041	6.499228562453	3
0	7048	6.507732562453	2
0	7048	6.507732562453	3
0	7060	6.516236562453	2
0	7060	6.516236562453	3
0	7069	6.524740562453	2
0	7079	6.53390392803	3
0	7083	6.54240792803	2
0	7092	6.54245940578	3
0	7099	6.55096340578	2
0	7099	6.55096340578	3
0	7108	6.55946740578	2
0	7118	6.566112238789	3
0	7130	6.574616238789	2
0	7130	6.574616238789	3
0	7138	6.583120238789	2
0	7138	6.583120238789	3
0	7151	6.591624238789	2
0	7151	6.591624238789	3
0	7168	6.600128238789	2
0	7168	6.600128238789	3
0	7185	6.608632238789	2
0	7185	6.608632238789	3
0	7194	6.617136238789	2
0	7194	6.617136238789	3
0	7207	6.625640238789	2
0	7207	6.625640238789	3
0	7216	6.634144238789	2
0	7216	6.634144238789	3
0	7225	6.642648238789	2
0	7235	6.645814556979	3
0	7239	6.654318556979	2
0	7248	6.65738855412	3
0	7256	6.66589255412	2
0	7256	6.66589255412	3
0	7264	6.67439655412	2
0	7275	6.706405042781	3
0	7278	6.714909042781	2
0	7288	6.731053672587	3
0	7295	6.739557672587	2
0	7295	6.739557672587	3
0	7303	6.748061672587	2
0	7314	6.77010312799	3
0	7317	6.77860712799	2
0	7326	6.779457548336	3
0	7329	6.787961548336	2
0	7340	6.81027273988	3
0	7343	6.81877673988	2
0	7353	6.831528979712	3
0	7356	6.840032979712	2
0	7366	6.872941101264	3
0	7369	6.881445101264	2
0	7379	6.9032173108	3
0	7390	6.9117213108	2
0	7390	6.9117213108	3
0	7402	6.9202253108	2
0	7402	6.9202253108	3
0	7411	6.9287293108	2
0	7411	6.9287293108	3
0	7420	6.9372333108	2
0	7431	6.948351770859	3
0	7442	6.956855770859	2
0	7442	6.956855770859	3
0	7450	6.965359770859	2
0	7450	6.965359770859	3
0	7459	6.973863770859	2
0	7469	6.980822083898	3
0	7477	6.989326083898	2
0	7477	6.989326083898	3
0	7485	6.997830083898	2
0	7496	7.016533101444	3
0	7503	7.025037101444	2
0	7503	7.025037101444	3
0	7515	7.033541101444	2
0	7515	7.033541101444	3
0	7532	7.042045101444	2
0	7532	7.042045101444	3
0	7541	7.050549101444	2
0	7541	7.050549101444	3
0	7566	7.059053101444	2
0	7566	7.059053101444	3
0	7579	7.067557101444	2
0	7579	7.067557101444	3
0	7588	7.076061101444	2
0	7588	7.076061101444	3
0	7597	7.084565101444	2
0	7597	7.084565101444	3
0	7610	7.093069101444	2
0	7610	7.093069101444	3
0	7619	7.101573101444	2
0	7619	7.101573101444	3
0	7632	7.110077101444	2
0	7632	7.110077101444	3
0	7641	7.118581101444	2
0	7652	7.13139004756	3
0	7655	7.13989404756	2
0	7664	7.144788270443	3
0	7668	7.153292270443	2
0	7677	7.153821506267	3
0	7684	7.162325506267	2
0	7684	7.162325506267	3
0	7693	7.170829506267	2
0	7704	7.232528993545	3
0	7711	7.241032993545	2
0	7711	7.241032993545	3
0	7723	7.249536993545	2
0	7723	7.249536993545	3
0	7736	7.258040993545	2
0	7736	7.258040993545	3
0	7745	7.266544993545	2
0	7756	7.29792504535	3
0	7767	7.30642904535	2
0	7767	7.30642904535	3
0	7775	7.31493304535	2
0	7775	7.31493304535	3
0	7792	7.32343704535	2
0	7792	7.32343704535	3
0	7805	7.33194104535	2
0	7805	7.33194104535	3
0	7818	7.34044504535	2
0	7818	7.34044504535	3
0	7835	7.34894904535	2
0	7835	7.34894904535	3
0	7848	7.35745304535	2
0	7848	7.35745304535	3
0	7861	7.36595704535	2
0	7861	7.36595704535	3
0	7878	7.37446104535	2
0	7878	7.37446104535	3
0	7887	7.38296504535	2
0	7887	7.38296504535	3
0	7896	7.39146904535	2
0	7896	7.39146904535	3
0	7905	7.39997304535	2
0	7905	7.39997304535	3
0	7914	7.40847704535	2
0	7924	7.414464726996	3
0	7940	7.422968726996	2
0	7940	7.422968726996	3
0	7948	7.431472726996	2
0	7948	7.431472726996	3
0	7961	7.439976726996	2
0	7961	7.439976726996	3
0	7974	7.448480726996	2
0	7974	7.448480726996	3
0	7987	7.456984726996	2
0	7987	7.456984726996	3
0	7996	7.465488726996	2
0	7996	7.465488726996	3
0	8005	7.473992726996	2
0	8016	7.538975951237	3
0	8023	7.547479951237	2
0	8023	7.547479951237	3
0	8031	7.555983951237	2
0	8041	7.559516370432	3
0	8045	7.568020370432	2
0	8054	7.571695877932	3
0	8058	7.580199877932	2
0	8068	7.591819094728	3
0	8071	7.600323094728	2
0	8081	7.636688876464	3
0	8084	7.645192876464	2
0	8094	7.66315368611	3
0	8097	7.67165768611	2
0	8106	7.680509376976	3
0	8110	7.689013376976	2
0	8119	7.69488719363	3
0	8135	7.70339119363	2
0	8135	7.70339119363	3
0	8147	7.71189519363	2
0	8147	7.71189519363	3
0	8160	7.72039919363	2
0	8160	7.72039919363	3
0	8173	7.72890319363	2
0	8173	7.72890319363	3
0	8182	7.73740719363	2
0	8182	7.73740719363	3
0	8195	7.74591119363	2
0	8195	7.74591119363	3
0	8204	7.75441519363	2
0	8204	7.75441519363	3
0	8213	7.76291919363	2
0	8224	7.777512799306	3
0	8235	7.786016799306	2
0	8235	7.786016799306	3
0	8247	7.794520799306	2
0	8247	7.794520799306	3
0	8256	7.803024799306	2
0	8256	7.803024799306	3
0	8269	7.811528799306	2
0	8269	7.811528799306	3
0	8278	7.820032799306	2
0	8289	7.830093665652	3
0	8292	7.838597665652	2
0	8302	7.863048688095	3
0	8305	7.871552688095	2
0	8315	7.912247899607	3
0	8322	7.920751899607	2
0	8322	7.920751899607	3
0	8338	7.929255899607	2
0	8338	7.929255899607	3
0	8347	7.937759899607	2
0	8347	7.937759899607	3
0	8360	7.946263899607	2
0	8360	7.946263899607	3
0	8373	7.954767899607	2
0	8373	7.954767899607	3
0	8382	7.963271899607	2
0	8393	7.976499221628	3
0	8400	7.985003221628	2
0	8400	7.985003221628	3
0	8412	7.993507221628	2
0	8412	7.993507221628	3
0	8433	8.002011221628	2
0	8433	8.002011221628	3
0	8442	8.010515221628	2
0	8442	8.010515221628	3
0	8451	8.019019221628	2
0	8451	8.019019221628	3
0	8468	8.027523221628	2
0	8468	8.027523221628	3
0	8485	8.036027221628	2
0	8485	8.036027221628	3
0	8498	8.044531221628	2
0	8498	8.044531221628	3
0	8507	8.053035221628	2
0	8507	8.053035221628	3
0	8516	8.061539221628	2
0	8516	8.061539221628	3
0	8525	8.070043221628	2
0	8536	8.089614223491	3
0	8543	8.098118223491	2
0	8543	8.098118223491	3
0	8551	8.106622223491	2
0	8562	8.119577293878	3
0	8573	8.128081293878	2
0	8573	8.128081293878	3
0	8585	8.136585293878	2
0	8585	8.136585293878	3
0	8598	8.145089293878	2
0	8598	8.145089293878	3
0	8611	8.153593293878	2
0	8611	8.153593293878	3
0	8624	8.162097293878	2
0	8624	8.162097293878	3
0	8633	8.170601293878	2
0	8633	8.170601293878	3
0	8646	8.179105293878	2
0	8646	8.179105293878	3
0	8659	8.187609293878	2
0	8659	8.187609293878	3
0	8676	8.196113293878	2
0	8676	8.196113293878	3
0	8685	8.204617293878	2
0	8685	8.204617293878	3
0	8702	8.213121293878	2
0	8702	8.213121293878	3
0	8711	8.221625293878	2
0	8711	8.221625293878	3
0	8724	8.230129293878	2
0	8724	8.230129293878	3
0	8733	8.238633293878	2
0	8743	8.241536153665	3
0	8747	8.250040153665	2
0	8756	8.257086687463	3
0	8760	8.265590687463	2
0	8769	8.266325030693	3
0	8780	8.274829030693	2
0	8780	8.274829030693	3
0	8793	8.283333030693	2
0	8793	8.283333030693	3
0	8810	8.291837030693	2
0	8810	8.291837030693	3
0	8819	8.300341030693	2
0	8819	8.300341030693	3
0	8836	8.308845030693	2
0	8836	8.308845030693	3
0	8849	8.317349030693	2
0	8849	8.317349030693	3
0	8858	8.325853030693	2
0	8858	8.325853030693	3
0	8871	8.334357030693	2
0	8871	8.334357030693	3
0	8884	8.342861030693	2
0	8884	8.342861030693	3
0	8893	8.351365030693	2
0	8893	8.351365030693	3
0	8902	8.359869030693	2
0	8913	8.378866852484	3
0	8920	8.387370852484	2
0	8920	8.387370852484	3
0	8928	8.395874852484	2
0	8938	8.404399199966	3
0	8946	8.412903199966	2
0	8946	8.412903199966	3
0	8962	8.421407199966	2
0	8962	8.421407199966	3
0	8975	8.429911199966	2
0	8975	8.429911199966	3
0	8996	8.438415199966	2
0	8996	8.438415199966	3
0	9009	8.446919199966	2
0	9009	8.446919199966	3
0	9018	8.455423199966	2
0	9018	8.455423199966	3
0	9027	8.463927199966	2
0	9027	8.463927199966	3
0	9040	8.472431199966	2
0	9040	8.472431199966	3
0	9065	8.480935199966	2
0	9065	8.480935199966	3
0	9094	8.489439199966	2
0	9094	8.489439199966	3
0	9103	8.497943199966	2
0	9103	8.497943199966	3
0	9112	8.506447199966	2
0	9112	8.506447199966	3
0	9129	8.514951199966	2
0	9129	8.514951199966	3
0	9138	8.523455199966	2
0	9138	8.523455199966	3
0	9151	8.531959199966	2
0	9151	8.531959199966	3
0	9160	8.540463199966	2
0	9160	8.540463199966	3
0	9177	8.548967199966	2
0	9177	8.548967199966	3
0	9194	8.557471199966	2
0	9194	8.557471199966	3
0	9207	8.565975199966	2
0	9207	8.565975199966	3
0	9220	8.574479199966	2
0	9220	8.574479199966	3
0	9233	8.582983199966	2
0	9233	8.582983199966	3
0	9242	8.591487199966	2
0	9242	8.591487199966	3
0	9255	8.599991199966	2
0	9255	8.599991199966	3
0	9264	8.608495199966	2
0	9264	8.608495199966	3
0	9277	8.616999199966	2
0	9277	8.616999199966	3
0	9286	8.625503199966	2
0	9286	8.625503199966	3
0	9295	8.634007199966	2
0	9295	8.634007199966	3
0	9312	8.642511199966	2
0	9312	8.642511199966	3
0	9321	8.651015199966	2
0	9321	8.651015199966	3
0	9330	8.659519199966	2
0	9330	8.659519199966	3
0	9339	8.668023199966	2
0	9339	8.668023199966	3
0	9356	8.676527199966	2
0	9356	8.676527199966	3
0	9365	8.685031199966	2
0	9365	8.685031199966	3
0	9374	8.693535199966	2
0	9374	8.693535199966	3
0	9387	8.702039199966	2
0	9387	8.702039199966	3
0	9396	8.710543199966	2
0	9406	8.713791191598	3
0	9410	8.722295191598	2
0	9420	8.766231188615	3
0	9423	8.774735188615	2
0	9432	8.783320760803	3
0	9440	8.791824760803	2
0	9440	8.791824760803	3
0	9452	8.800328760803	2
0	9452	8.800328760803	3
0	9469	8.808832760803	2
0	9469	8.808832760803	3
0	9482	8.817336760803	2
0	9482	8.817336760803	3
0	9495	8.825840760803	2
0	9495	8.825840760803	3
0	9508	8.834344760803	2
0	9508	8.834344760803	3
0	9521	8.842848760803	2
0	9521	8.842848760803	3
0	9546	8.851352760803	2
0	9546	8.851352760803	3
0	9555	8.859856760803	2
0	9555	8.859856760803	3
0	9564	8.868360760803	2
0	9564	8.868360760803	3
0	9573	8.876864760803	2
0	9573	8.876864760803	3
0	9582	8.885368760803	2
0	9582	8.885368760803	3
0	9599	8.893872760803	2
0	9599	8.893872760803	3
0	9612	8.902376760803	2
0	9612	8.902376760803	3
0	9629	8.910880760803	2
0	9629	8.910880760803	3
0	9638	8.919384760803	2
0	9638	8.919384760803	3
0	9647	8.927888760803	2
0	9647	8.927888760803	3
0	9660	8.936392760803	2
0	9660	8.936392760803	3
0	9669	8.944896760803	2
0	9679	8.948868625561	3
0	9683	8.957372625561	2
0	9693	8.989583794137	3
0	9700	8.998087794137	2
0	9700	8.998087794137	3
0	9712	9.006591794137	2
0	9712	9.006591794137	3
0	9725	9.015095794137	2
0	9725	9.015095794137	3
0	9734	9.023599794137	2
0	9745	9.043994329977	3
0	9748	9.052498329977	2
0	9757	9.052821011036	3
0	9764	9.061325011036	2
0	9764	9.061325011036	3
0	9773	9.069829011036	2
0	9784	9.081737536936	3
0	9795	9.090241536936	2
0	9795	9.090241536936	3
0	9811	9.098745536936	2
0	9811	9.098745536936	3
0	9820	9.107249536936	2
0	9820	9.107249536936	3
0	9829	9.115753536936	2
0	9829	9.115753536936	3
0	9842	9.124257536936	2
0	9842	9.124257536936	3
0	9855	9.132761536936	2
0	9855	9.132761536936	3
0	9872	9.141265536936	2
0	9872	9.141265536936	3
0	9881	9.149769536936	2
0	9881	9.149769536936	3
0	9890	9.158273536936	2
0	9900	9.163680452625	3
0	9904	9.172184452625	2
0	9914	9.198491361119	3
0	9917	9.206995361119	2
0	9927	9.256267737116	3
0	9934	9.264771737116	2
0	9934	9.264771737116	3
0	9942	9.273275737116	2
0	9953	9.302570150488	3
0	9956	9.311074150488	2
0	9966	9.321405810743	3
0	9969	9.329909810743	2
0	9978	9.334918444315	3
0	9994	9.343422444315	2
0	9994	9.343422444315	3
0	10002	9.351926444315	2
0	10002	9.351926444315	3
0	10011	9.360430444315	2
0	10011	9.360430444315	3
0	10020	9.368934444315	2
0	10030	9.374124771808	3
0	10038	9.382628771808	2
0	10038	9.382628771808	3
0	10050	9.391132771808	2
0	10050	9.391132771808	3
0	10063	9.399636771808	2
0	10063	9.399636771808	3
0	10072	9.408140771808	2
0	10082	9.411789337981	3
0	10086	9.420293337981	2
0	10096	9.43410221685	3
0	10107	9.44260621685	2
0	10107	9.44260621685	3
0	10115	9.45111021685	2
0	10115	9.45111021685	3
0	10124	9.45961421685	2
0	10134	9.464786619077	3
0	10138	9.473290619077	2
0	10148	9.48523379833	3
0	10163	9.49373779833	2
0	10163	9.49373779833	3
0	10183	9.50224179833	2
0	10183	9.50224179833	3
0	10192	9.51074579833	2
0	10192	9.51074579833	3
0	10209	9.51924979833	2
0	10209	9.51924979833	3
0	10226	9.52775379833	2
0	10226	9.52775379833	3
0	10235	9.53625779833	2
0	10235	9.53625779833	3
0	10244	9.54476179833	2
0	10244	9.54476179833	3
0	10253	9.55326579833	2
0	10253	9.55326579833	3
0	10262	9.56176979833	2
0	10262	9.56176979833	3
0	10271	9.57027379833	2
0	10271	9.57027379833	3
0	10284	9.57877779833	2
0	10284	9.57877779833	3
0	10293	9.58728179833	2
0	10304	9.604784843661	3
0	10311	9.613288843661	2
0	10311	9.613288843661	3
0	10327	9.621792843661	2
0	10327	9.621792843661	3
0	10344	9.630296843661	2
0	10344	9.630296843661	3
0	10357	9.638800843661	2
0	10357	9.638800843661	3
0	10370	9.647304843661	2
0	10370	9.647304843661	3
0	10383	9.655808843661	2
0	10383	9.655808843661	3
0	10392	9.664312843661	2
0	10392	9.664312843661	3
0	10405	9.672816843661	2
0	10405	9.672816843661	3
0	10414	9.681320843661	2
0	10414	9.681320843661	3
0	10427	9.689824843661	2
0	10427	9.689824843661	3
0	10436	9.698328843661	2
0	10447	9.721927110054	3
0	10454	9.730431110054	2
0	10454	9.730431110054	3
0	10462	9.738935110054	2
0	10473	9.754472021242	3
0	10476	9.762976021242	2
0	10485	9.772106421032	3
0	10493	9.780610421032	2
0	10493	9.780610421032	3
0	10505	9.789114421032	2
0	10505	9.789114421032	3
0	10518	9.797618421032	2
0	10518	9.797618421032	3
0	10527	9.806122421032	2
0	10538	9.818058958904	3
0	10553	9.826562958904	2
0	10553	9.826562958904	3
0	10565	9.835066958904	2
0	10565	9.835066958904	3
0	10574	9.843570958904	2
0	10574	9.843570958904	3
0	10587	9.852074958904	2
0	10587	9.852074958904	3
0	10600	9.860578958904	2
0	10600	9.860578958904	3
0	10617	9.869082958904	2
0	10617	9.869082958904	3
0	10638	9.877586958904	2
0	10638	9.877586958904	3
0	10647	9.886090958904	2
0	10647	9.886090958904	3
0	10656	9.894594958904	2
0	10656	9.894594958904	3
0	10665	9.903098958904	2
0	10665	9.903098958904	3
0	10682	9.911602958904	2
0	10682	9.911602958904	3
0	10691	9.920106958904	2
0	10691	9.920106958904	3
0	10700	9.928610958904	2
0	10700	9.928610958904	3
0	10713	9.937114958904	2
0	10713	9.937114958904	3
0	10722	9.945618958904	2
0	10732	9.952813483804	3
0	10740	9.961317483804	2
0	10740	9.961317483804	3
0	10756	9.969821483804	2
0	10756	9.969821483804	3
0	10765	9.978325483804	2
0	10765	9.978325483804	3
0	10778	9.986829483804	2
0	10778	9.986829483804	3
0	10791	9.995333483804	2
0	10791	9.995333483804	3
0	10800	10.003837483804	2
0	10811	10.01538247145	3
0	10818	10.02388647145	2
0	10818	10.02388647145	3
0	10826	10.03239047145	2
0	10837	10.052777330447	3
0	10848	10.061281330447	2
0	10848	10.061281330447	3
0	10856	10.069785330447	2
0	10856	10.069785330447	3
0	10869	10.078289330447	2
0	10869	10.078289330447	3
0	10890	10.086793330447	2
0	10890	10.086793330447	3
0	10899	10.095297330447	2
0	10899	10.095297330447	3
0	10912	10.103801330447	2
0	10912	10.103801330447	3
0	10925	10.112305330447	2
0	10925	10.112305330447	3
0	10934	10.120809330447	2
0	10934	10.120809330447	3
0	10943	10.129313330447	2
0	10953	10.136511199092	3
0	10957	10.145015199092	2
0	10966	10.152370280366	3
0	10974	10.160874280366	2
0	10974	10.160874280366	3
0	10986	10.169378280366	2
0	10986	10.169378280366	3
0	10999	10.177882280366	2
0	10999	10.177882280366	3
0	11008	10.186386280366	2
0	11019	10.199392059481	3
0	11022	10.207896059481	2
0	11031	10.215431991946	3
0	11039	10.223935991946	2
0	11039	10.223935991946	3
0	11051	10.232439991946	2
0	11051	10.232439991946	3
0	11060	10.240943991946	2
0	11071	10.259945303094	3
0	11074	10.268449303094	2
0	11083	10.274818668999	3
0	11091	10.283322668999	2
0	11091	10.283322668999	3
0	11107	10.291826668999	2
0	11107	10.291826668999	3
0	11120	10.300330668999	2
0	11120	10.300330668999	3
0	11129	10.308834668999	2
0	11129	10.308834668999	3
0	11138	10.317338668999	2
0	11148	10.325433591871	3
0	11152	10.333937591871	2
0	11162	10.356248664508	3
0	11169	10.364752664508	2
0	11169	10.364752664508	3
0	11181	10.373256664508	2
0	11181	10.373256664508	3
0	11194	10.381760664508	2
0	11194	10.381760664508	3
0	11203	10.390264664508	2
0	11214	10.415845650437	3
0	11225	10.424349650437	2
0	11225	10.424349650437	3
0	11233	10.432853650437	2
0	11233	10.432853650437	3
0	11242	10.441357650437	2
0	11252	10.44614379017	3
0	11260	10.45464779017	2
0	11260	10.45464779017	3
0	11268	10.46315179017	2
0	11279	10.481775526228	3
0	11286	10.490279526228	2
0	11286	10.490279526228	3
0	11302	10.498783526228	2
0	11302	10.498783526228	3
0	11315	10.507287526228	2
0	11315	10.507287526228	3
0	11328	10.515791526228	2
0	11328	10.515791526228	3
0	11345	10.524295526228	2
0	11345	10.524295526228	3
0	11354	10.532799526228	2
0	11354	10.532799526228	3
0	11363	10.541303526228	2
0	11363	10.541303526228	3
0	11372	10.549807526228	2
0	11382	10.551472165921	3
0	11386	10.559976165921	2
0	11395	10.567261936702	3
0	11399	10.575765936702	2
0	11408	10.582865406406	3
0	11416	10.591369406406	2
0	11416	10.591369406406	3
0	11428	10.599873406406	2
0	11428	10.599873406406	3
0	11437	10.608377406406	2
0	11447	10.615443424712	3
0	11451	10.623947424712	2
0	11461	10.634494976163	3
0	11468	10.642998976163	2
0	11468	10.642998976163	3
0	11476	10.651502976163	2
0	11486	10.657245550876	3
0	11490	10.665749550876	2
0	11499	10.673222403081	3
0	11507	10.681726403081	2
0	11507	10.681726403081	3
0	11515	10.690230403081	2
0	11525	10.699167420259	3
0	11533	10.707671420259	2
0	11533	10.707671420259	3
0	11545	10.716175420259	2
0	11545	10.716175420259	3
0	11558	10.724679420259	2
0	11558	10.724679420259	3
0	11571	10.733183420259	2
0	11571	10.733183420259	3
0	11580	10.741687420259	2
0	11589	10.743003746849	3
0	11597	10.751507746849	2
0	11597	10.751507746849	3
0	11606	10.760011746849	2
0	11617	10.775467711484	3
0	11620	10.783971711484	2
0	11629	10.787325495322	3
0	11637	10.795829495322	2
0	11637	10.795829495322	3
0	11649	10.804333495322	2
0	11649	10.804333495322	3
0	11658	10.812837495322	2
0	11668	10.819934326728	3
0	11680	10.828438326728	2
0	11680	10.828438326728	3
0	11692	10.836942326728	2
0	11692	10.836942326728	3
0	11701	10.845446326728	2
0	11701	10.845446326728	3
0	11714	10.853950326728	2
0	11714	10.853950326728	3
0	11723	10.862454326728	2
0	11734	10.883800759415	3
0	11745	10.892304759415	2
0	11745	10.892304759415	3
0	11761	10.900808759415	2
0	11761	10.900808759415	3
0	11770	10.909312759415	2
0	11770	10.909312759415	3
0	11779	10.917816759415	2
0	11779	10.917816759415	3
0	11796	10.926320759415	2
0	11796	10.926320759415	3
0	11805	10.934824759415	2
0	11805	10.934824759415	3
0	11814	10.943328759415	2
0	11825	10.969571621382	3
0	11832	10.978075621382	2
0	11832	10.978075621382	3
0	11840	10.986579621382	2
0	11850	10.994683306469	3
0	11854	11.003187306469	2
0	11863	11.004713837279	3
0	11871	11.013217837279	2
0	11871	11.013217837279	3
0	11883	11.021721837279	2
0	11883	11.021721837279	3
0	11892	11.030225837279	2
0	11902	11.032241832784	3
0	11910	11.040745832784	2
0	11910	11.040745832784	3
0	11918	11.049249832784	2
0	11927	11.049625857806	3
0	11931	11.058129857806	2
0	11940	11.058366825511	3
0	11948	11.066870825511	2
0	11948	11.066870825511	3
0	11957	11.075374825511	2
0	11968	11.094100384513	3
0	11971	11.102604384513	2
0	11980	11.103806988776	3
0	11983	11.112310988776	2
0	11994	11.124850956984	3
0	11997	11.133354956984	2
0	12006	11.140367820239	3
0	12014	11.148871820239	2
0	12014	11.148871820239	3
0	12022	11.157375820239	2
0	12031	11.158639145618	3
0	12039	11.167143145618	2
0	12039	11.167143145618	3
0	12048	11.175647145618	2
0	12059	11.189587686994	3
0	12074	11.198091686994	2
0	12074	11.198091686994	3
0	12086	11.206595686994	2
0	12086	11.206595686994	3
0	12095	11.215099686994	2
0	12095	11.215099686994	3
0	12104	11.223603686994	2
0	12104	11.223603686994	3
0	12125	11.232107686994	2
0	12125	11.232107686994	3
0	12138	11.240611686994	2
0	12138	11.240611686994	3
0	12147	11.249115686994	2
0	12147	11.249115686994	3
0	12164	11.257619686994	2
0	12164	11.257619686994	3
0	12181	11.266123686994	2
0	12181	11.266123686994	3
0	12190	11.274627686994	2
0	12190	11.274627686994	3
0	12207	11.283131686994	2
0	12207	11.283131686994	3
0	12220	11.291635686994	2
0	12220	11.291635686994	3
0	12229	11.300139686994	2
0	12229	11.300139686994	3
0	12246	11.308643686994	2
0	12246	11.308643686994	3
0	12255	11.317147686994	2
0	12255	11.317147686994	3
0	12268	11.325651686994	2
0	12268	11.325651686994	3
0	12277	11.334155686994	2
0	12277	11.334155686994	3
0	12286	11.342659686994	2
0	12286	11.342659686994	3
0	12303	11.351163686994	2
0	12303	11.351163686994	3
0	12312	11.359667686994	2
0	12312	11.359667686994	3
0	12321	11.368171686994	2
0	12332	11.389370622169	3
0	12343	11.397874622169	2
0	12343	11.397874622169	3
0	12359	11.406378622169	2
0	12359	11.406378622169	3
0	12372	11.414882622169	2
0	12372	11.414882622169	3
0	12385	11.423386622169	2
0	12385	11.423386622169	3
0	12394	11.431890622169	2
0	12394	11.431890622169	3
0	12403	11.440394622169	2
0	12403	11.440394622169	3
0	12416	11.448898622169	2
0	12416	11.448898622169	3
0	12425	11.457402622169	2
0	12436	11.469281165422	3
0	12443	11.477785165422	2
0	12443	11.477785165422	3
0	12459	11.486289165422	2
0	12459	11.486289165422	3
0	12472	11.494793165422	2
0	12472	11.494793165422	3
0	12489	11.503297165422	2
0	12489	11.503297165422	3
0	12502	11.511801165422	2
0	12502	11.511801165422	3
0	12511	11.520305165422	2
0	12511	11.520305165422	3
0	12528	11.528809165422	2
0	12528	11.528809165422	3
0	12537	11.537313165422	2
0	12537	11.537313165422	3
0	12546	11.545817165422	2
0	12546	11.545817165422	3
0	12559	11.554321165422	2
0	12559	11.554321165422	3
0	12568	11.562825165422	2
0	12578	11.567752769304	3
0	12586	11.576256769304	2
0	12586	11.576256769304	3
0	12594	11.584760769304	2
0	12605	11.603677334271	3
0	12612	11.612181334271	2
0	12612	11.612181334271	3
0	12620	11.620685334271	2
0	12631	11.714879777324	3
0	12638	11.723383777324	2
0	12638	11.723383777324	3
0	12654	11.731887777324	2
0	12654	11.731887777324	3
0	12667	11.740391777324	2
0	12667	11.740391777324	3
0	12680	11.748895777324	2
0	12680	11.748895777324	3
0	12689	11.757399777324	2
0	12689	11.757399777324	3
0	12698	11.765903777324	2
0	12709	11.776468459716	3
0	12712	11.784972459716	2
0	12722	11.796101776603	3
0	12725	11.804605776603	2
0	12734	11.811547481873	3
0	12738	11.820051481873	2
0	12747	11.821376736394	3
0	12750	11.829880736394	2
0	12761	11.852035305871	3
0	12768	11.860539305871	2
0	12768	11.860539305871	3
0	12776	11.869043305871	2
0	12787	11.88501284019	3
0	12790	11.89351684019	2
0	12800	11.906560723456	3
0	12807	11.915064723456	2
0	12807	11.915064723456	3
0	12815	11.923568723456	2
0	12825	11.927148011564	3
0	12841	11.935652011564	2
0	12841	11.935652011564	3
0	12853	11.944156011564	2
0	12853	11.944156011564	3
0	12862	11.952660011564	2
0	12862	11.952660011564	3
0	12879	11.961164011564	2
0	12879	11.961164011564	3
0	12892	11.969668011564	2
0	12892	11.969668011564	3
0	12901	11.978172011564	2
0	12901	11.978172011564	3
0	12910	11.986676011564	2
0	12910	11.986676011564	3
0	12919	11.995180011564	2
0	12929	12.002968921421	3
0	12937	12.011472921421	2
0	12937	12.011472921421	3
0	12949	12.019976921421	2
0	12949	12.019976921421	3
0	12958	12.028480921421	2
0	12968	12.030434480195	3
0	12980	12.038938480195	2
0	12980	12.038938480195	3
0	12988	12.047442480195	2
0	12988	12.047442480195	3
0	13005	12.055946480195	2
0	13005	12.055946480195	3
0	13014	12.064450480195	2
0	13014	12.064450480195	3
0	13023	12.072954480195	2
0	13033	12.079045825267	3
0	13037	12.087549825267	2
0	13046	12.087855491063	3
0	13057	12.096359491063	2
0	13057	12.096359491063	3
0	13066	12.104863491063	2
0	13066	12.104863491063	3
0	13075	12.113367491063	2
0	13086	12.128143876901	3
0	13089	12.136647876901	2
0	13098	12.138620345522	3
0	13110	12.147124345522	2
0	13110	12.147124345522	3
0	13126	12.155628345522	2
0	13126	12.155628345522	3
0	13139	12.164132345522	2
0	13139	12.164132345522	3
0	13156	12.172636345522	2
0	13156	12.172636345522	3
0	13169	12.181140345522	2
0	13169	12.181140345522	3
0	13178	12.189644345522	2
0	13178	12.189644345522	3
0	13191	12.198148345522	2
0	13191	12.198148345522	3
0	13204	12.206652345522	2
0	13204	12.206652345522	3
0	13217	12.215156345522	2
0	13217	12.215156345522	3
0	13226	12.223660345522	2
0	13226	12.223660345522	3
0	13239	12.232164345522	2
0	13239	12.232164345522	3
0	13248	12.240668345522	2
0	13248	12.240668345522	3
0	13257	12.249172345522	2
0	13268	12.259568446036	3
0	13271	12.268072446036	2
0	13280	12.277644317983	3
0	13284	12.286148317983	2
0	13294	12.300278103906	3
0	13301	12.308782103906	2
0	13301	12.308782103906	3
0	13313	12.317286103906	2
0	13313	12.317286103906	3
0	13322	12.325790103906	2
0	13333	12.376543888566	3
0	13340	12.385047888566	2
0	13340	12.385047888566	3
0	13356	12.393551888566	2
0	13356	12.393551888566	3
0	13365	12.402055888566	2
0	13365	12.402055888566	3
0	13374	12.410559888566	2
0	13385	12.421260925053	3
0	13388	12.429764925053	2
0	13398	12.461464106321	3
0	13401	12.469968106321	2
0	13410	12.476713539754	3
0	13418	12.485217539754	2
0	13418	12.485217539754	3
0	13438	12.493721539754	2
0	13438	12.493721539754	3
0	13455	12.502225539754	2
0	13455	12.502225539754	3
0	13468	12.510729539754	2
0	13468	12.510729539754	3
0	13481	12.519233539754	2
0	13481	12.519233539754	3
0	13490	12.527737539754	2
0	13490	12.527737539754	3
0	13507	12.536241539754	2
0	13507	12.536241539754	3
0	13520	12.544745539754	2
0	13520	12.544745539754	3
0	13533	12.553249539754	2
0	13533	12.553249539754	3
0	13542	12.561753539754	2
0	13542	12.561753539754	3
0	13551	12.570257539754	2
0	13551	12.570257539754	3
0	13564	12.578761539754	2
0	13564	12.578761539754	3
0	13577	12.587265539754	2
0	13577	12.587265539754	3
0	13586	12.595769539754	2
0	13586	12.595769539754	3
0	13595	12.604273539754	2
0	13606	12.625772679224	3
0	13617	12.634276679224	2
0	13617	12.634276679224	3
0	13633	12.642780679224	2
0	13633	12.642780679224	3
0	13642	12.651284679224	2
0	13642	12.651284679224	3
0	13651	12.659788679224	2
0	13651	12.659788679224	3
0	13668	12.668292679224	2
0	13668	12.668292679224	3
0	13681	12.676796679224	2
0	13681	12.676796679224	3
0	13690	12.685300679224	2
0	13690	12.685300679224	3
0	13703	12.693804679224	2
0	13703	12.693804679224	3
0	13712	12.702308679224	2
0	13721	12.703464023574	3
0	13725	12.711968023574	2
0	13735	12.713262759547	3
0	13738	12.721766759547	2
0	13748	12.727910006009	3
0	13764	12.736414006009	2
0	13764	12.736414006009	3
0	13784	12.744918006009	2
0	13784	12.744918006009	3
0	13793	12.753422006009	2
0	13793	12.753422006009	3
0	13802	12.761926006009	2
0	13802	12.761926006009	3
0	13811	12.770430006009	2
0	13811	12.770430006009	3
0	13820	12.778934006009	2
0	13820	12.778934006009	3
0	13833	12.787438006009	2
0	13833	12.787438006009	3
0	13842	12.795942006009	2
0	13853	12.808797854672	3
0	13864	12.817301854672	2
0	13864	12.817301854672	3
0	13872	12.825805854672	2
0	13872	12.825805854672	3
0	13881	12.834309854672	2
0	13892	12.844883920448	3
0	13903	12.853387920448	2
0	13903	12.853387920448	3
0	13911	12.861891920448	2
0	13911	12.861891920448	3
0	13928	12.870395920448	2
0	13928	12.870395920448	3
0	13941	12.878899920448	2
0	13941	12.878899920448	3
0	13950	12.887403920448	2
0	13950	12.887403920448	3
0	13959	12.895907920448	2
0	13970	12.914763452528	3
0	13973	12.923267452528	2
0	13982	12.927005373264	3
0	13986	12.935509373264	2
0	13995	12.935829960173	3
0	14002	12.944333960173	2
0	14002	12.944333960173	3
0	14011	12.952837960173	2
0	14021	12.959791584487	3
0	14029	12.968295584487	2
0	14029	12.968295584487	3
0	14037	12.976799584487	2
0	14048	13.002673267744	3
0	14051	13.011177267744	2
0	14061	13.026363268028	3
0	14064	13.034867268028	2
0	14073	13.037900513299	3
0	14081	13.046404513299	2
0	14081	13.046404513299	3
0	14093	13.054908513299	2
0	14093	13.054908513299	3
0	14102	13.063412513299	2
0	14113	13.082250158114	3
0	14116	13.090754158114	2
0	14125	13.091172763962	3
0	14136	13.099676763962	2
0	14136	13.099676763962	3
0	14145	13.108180763962	2
0	14145	13.108180763962	3
0	14158	13.116684763962	2
0	14158	13.116684763962	3
0	14167	13.125188763962	2
0	14178	13.140787473859	3
0	14185	13.149291473859	2
0	14185	13.149291473859	3
0	14193	13.157795473859	2
0	14202	13.159129888304	3
0	14210	13.167633888304	2
0	14210	13.167633888304	3
0	14219	13.176137888304	2
0	14230	13.200291339774	3
0	14233	13.208795339774	2
0	14242	13.211747291793	3
0	14246	13.220251291793	2
0	14255	13.221394602606	3
0	14262	13.229898602606	2
0	14262	13.229898602606	3
0	14271	13.238402602606	2
0	14282	13.257395773752	3
0	14289	13.265899773752	2
0	14289	13.265899773752	3
0	14297	13.274403773752	2
0	14307	13.282238548558	3
0	14311	13.290742548558	2
0	14321	13.332722268001	3
0	14324	13.341226268001	2
0	14333	13.351078517217	3
0	14337	13.359582517217	2
0	14346	13.359860921691	3
0	14357	13.368364921691	2
0	14357	13.368364921691	3
0	14370	13.376868921691	2
0	14370	13.376868921691	3
0	14387	13.385372921691	2
0	14387	13.385372921691	3
0	14404	13.393876921691	2
0	14404	13.393876921691	3
0	14417	13.402380921691	2
0	14417	13.402380921691	3
0	14430	13.410884921691	2
0	14430	13.410884921691	3
0	14447	13.419388921691	2
0	14447	13.419388921691	3
0	14456	13.427892921691	2
0	14456	13.427892921691	3
0	14465	13.436396921691	2
0	14465	13.436396921691	3
0	14478	13.444900921691	2
0	14478	13.444900921691	3
0	14487	13.453404921691	2
0	14487	13.453404921691	3
0	14500	13.461908921691	2
0	14500	13.461908921691	3
0	14513	13.470412921691	2
0	14513	13.470412921691	3
0	14522	13.478916921691	2
0	14522	13.478916921691	3
0	14531	13.487420921691	2
0	14541	13.493302162134	3
0	14545	13.501806162134	2
0	14555	13.532669604283	3
0	14562	13.541173604283	2
0	14562	13.541173604283	3
0	14574	13.549677604283	2
0	14574	13.549677604283	3
0	14583	13.558181604283	2
0	14594	13.620572462154	3
0	14597	13.629076462154	2
0	14607	13.673536323404	3
0	14610	13.682040323404	2
0	14619	13.684631918441	3
0	14627	13.693135918441	2
0	14627	13.693135918441	3
0	14647	13.701639918441	2
0	14647	13.701639918441	3
0	14656	13.710143918441	2
0	14656	13.710143918441	3
0	14665	13.718647918441	2
0	14665	13.718647918441	3
0	14674	13.727151918441	2
0	14684	13.736980003678	3
0	14692	13.745484003678	2
0	14692	13.745484003678	3
0	14700	13.753988003678	2
0	14709	13.753999899386	3
0	14717	13.762503899386	2
0	14717	13.762503899386	3
0	14726	13.771007899386	2
0	14737	13.793393387364	3
0	14740	13.801897387364	2
0	14749	13.80904150128	3
0	14757	13.81754550128	2
0	14757	13.81754550128	3
0	14765	13.82604950128	2
0	14775	13.832669835932	3
0	14787	13.841173835932	2
0	14787	13.841173835932	3
0	14799	13.849677835932	2
0	14799	13.849677835932	3
0	14816	13.858181835932	2
0	14816	13.858181835932	3
0	14829	13.866685835932	2
0	14829	13.866685835932	3
0	14842	13.875189835932	2
0	14842	13.875189835932	3
0	14859	13.883693835932	2
0	14859	13.883693835932	3
0	14868	13.892197835932	2
0	14868	13.892197835932	3
0	14885	13.900701835932	2
0	14885	13.900701835932	3
0	14898	13.909205835932	2
0	14898	13.909205835932	3
0	14915	13.917709835932	2
0	14915	13.917709835932	3
0	14924	13.926213835932	2
0	14924	13.926213835932	3
0	14933	13.934717835932	2
0	14933	13.934717835932	3
0	14946	13.943221835932	2
0	14946	13.943221835932	3
0	14955	13.951725835932	2
0	14955	13.951725835932	3
0	14964	13.960229835932	2
0	14964	13.960229835932	3
0	14973	13.968733835932	2
0	14983	13.972388614115	3
0	14991	13.980892614115	2
0	14991	13.980892614115	3
0	14999	13.989396614115	2
0	15009	13.9979959035	3
0	15017	14.0064999035	2
0	15017	14.0064999035	3
0	15029	14.0150039035	2
0	15029	14.0150039035	3
0	15038	14.0235079035	2
0	15048	14.028059606374	3
0	15056	14.036563606374	2
0	15056	14.036563606374	3
0	15068	14.045067606374	2
0	15068	14.045067606374	3
0	15077	14.053571606374	2
0	15087	14.063542407908	3
0	15099	14.072046407908	2
0	15099	14.072046407908	3
0	15111	14.080550407908	2
0	15111	14.080550407908	3
0	15124	14.089054407908	2
0	15124	14.089054407908	3
0	15133	14.097558407908	2
0	15133	14.097558407908	3
0	15146	14.106062407908	2
0	15146	14.106062407908	3
0	15155	14.114566407908	2
0	15166	14.132725928241	3
0	15173	14.141229928241	2
0	15173	14.141229928241	3
0	15185	14.149733928241	2
0	15185	14.149733928241	3
0	15198	14.158237928241	2
0	15198	14.158237928241	3
0	15211	14.166741928241	2
0	15211	14.166741928241	3
0	15220	14.175245928241	2
0	15231	14.211042529821	3
0	15234	14.219546529821	2
0	15243	14.225383885758	3
0	15251	14.233887885758	2
0	15251	14.233887885758	3
0	15263	14.242391885758	2
0	15263	14.242391885758	3
0	15272	14.250895885758	2
0	15283	14.269704757488	3
0	15290	14.278208757488	2
0	15290	14.278208757488	3
0	15298	14.286712757488	2
0	15307	14.286739664877	3
0	15311	14.295243664877	2
0	15322	14.317886242149	3
0	15325	14.326390242149	2
0	15334	14.330997766101	3
0	15342	14.339501766101	2
0	15342	14.339501766101	3
0	15358	14.348005766101	2
0	15358	14.348005766101	3
0	15367	14.356509766101	2
0	15367	14.356509766101	3
0	15380	14.365013766101	2
0	15380	14.365013766101	3
0	15393	14.373517766101	2
0	15393	14.373517766101	3
0	15402	14.382021766101	2
0	15413	14.404633630914	3
0	15416	14.413137630914	2
0	15426	14.428829961941	3
0	15429	14.437333961941	2
0	15439	14.449153631888	3
0	15442	14.457657631888	2
0	15452	14.478244004937	3
0	15459	14.486748004937	2
0	15459	14.486748004937	3
0	15475	14.495252004937	2
0	15475	14.495252004937	3
0	15488	14.503756004937	2
0	15488	14.503756004937	3
0	15497	14.512260004937	2
0	15497	14.512260004937	3
0	15514	14.520764004937	2
0	15514	14.520764004937	3
0	15531	14.529268004937	2
0	15531	14.529268004937	3
0	15544	14.537772004937	2
0	15544	14.537772004937	3
0	15553	14.546276004937	2
0	15553	14.546276004937	3
0	15562	14.554780004937	2
0	15562	14.554780004937	3
0	15571	14.563284004937	2
0	15581	14.565536240248	3
0	15585	14.574040240248	2
0	15595	14.591835748037	3
0	15598	14.600339748037	2
0	15608	14.615455761319	3
0	15611	14.623959761319	2
0	15620	14.62815691902	3
0	15628	14.63666091902	2
0	15628	14.63666091902	3
0	15640	14.64516491902	2
0	15640	14.64516491902	3
0	15649	14.65366891902	2
0	15659	14.663036188375	3
0	15667	14.671540188375	2
0	15667	14.671540188375	3
0	15675	14.680044188375	2
0	15685	14.683659921946	3
0	15693	14.692163921946	2
0	15693	14.692163921946	3
0	15701	14.700667921946	2
0	15711	14.704505866641	3
0	15715	14.713009866641	2
0	15725	14.724281754274	3
0	15732	14.732785754274	2
0	15732	14.732785754274	3
0	15744	14.741289754274	2
0	15744	14.741289754274	3
0	15765	14.749793754274	2
0	15765	14.749793754274	3
0	15774	14.758297754274	2
0	15774	14.758297754274	3
0	15783	14.766801754274	2
0	15783	14.766801754274	3
0	15796	14.775305754274	2
0	15796	14.775305754274	3
0	15809	14.783809754274	2
0	15809	14.783809754274	3
0	15818	14.792313754274	2
0	15829	14.826051481114	3
0	15832	14.834555481114	2
0	15842	14.874426418201	3
0	15845	14.882930418201	2
0	15855	14.933410852154	3
0	15862	14.941914852154	2
0	15862	14.941914852154	3
0	15870	14.950418852154	2
0	15881	14.968343115546	3
0	15888	14.976847115546	2
0	15888	14.976847115546	3
0	15900	14.985351115546	2
0	15900	14.985351115546	3
0	15909	14.993855115546	2
0	15919	14.996059718828	3
0	15927	15.004563718828	2
0	15927	15.004563718828	3
0	15947	15.013067718828	2
0	15947	15.013067718828	3
0	15968	15.021571718828	2
0	15968	15.021571718828	3
0	15981	15.030075718828	2
0	15981	15.030075718828	3
0	15990	15.038579718828	2
0	15990	15.038579718828	3
0	16011	15.047083718828	2
0	16011	15.047083718828	3
0	16032	15.055587718828	2
0	16032	15.055587718828	3
0	16041	15.064091718828	2
0	16041	15.064091718828	3
0	16050	15.072595718828	2
0	16050	15.072595718828	3
0	16059	15.081099718828	2
0	16059	15.081099718828	3
0	16068	15.089603718828	2
0	16068	15.089603718828	3
0	16085	15.098107718828	2
0	16085	15.098107718828	3
0	16094	15.106611718828	2
0	16094	15.106611718828	3
0	16103	15.115115718828	2
0	16103	15.115115718828	3
0	16116	15.123619718828	2
0	16116	15.123619718828	3
0	16129	15.132123718828	2
0	16129	15.132123718828	3
0	16142	15.140627718828	2
0	16142	15.140627718828	3
0	16155	15.149131718828	2
0	16155	15.149131718828	3
0	16164	15.157635718828	2
0	16164	15.157635718828	3
0	16173	15.166139718828	2
0	16173	15.166139718828	3
0	16182	15.174643718828	2
0	16193	15.187336962119	3
0	16200	15.195840962119	2
0	16200	15.195840962119	3
0	16208	15.204344962119	2
0	16218	15.211373974548	3
0	16222	15.219877974548	2
0	16231	15.221098080162	3
0	16238	15.229602080162	2
0	16238	15.229602080162	3
0	16247	15.238106080162	2
0	16258	15.264478986848	3
0	16261	15.272982986848	2
0	16270	15.275424060887	3
0	16282	15.283928060887	2
0	16282	15.283928060887	3
0	16290	15.292432060887	2
0	16290	15.292432060887	3
0	16299	15.300936060887	2
0	16308	15.301685342539	3
0	16312	15.310189342539	2
0	16322	15.3158854682	3
0	16326	15.3243894682	2
0	16336	15.345657447512	3
0	16343	15.354161447512	2
0	16343	15.354161447512	3
0	16351	15.362665447512	2
0	16361	15.366296036474	3
0	16369	15.374800036474	2
0	16369	15.374800036474	3
0	16377	15.383304036474	2
0	16386	15.38391630028	3
0	16390	15.39242030028	2
0	16401	15.42114186717	3
0	16404	15.42964586717	2
0	16414	15.467665394412	3
0	16417	15.476169394412	2
0	16427	15.49139589768	3
0	16434	15.49989989768	2
0	16434	15.49989989768	3
0	16442	15.50840389768	2
0	16453	15.522973491593	3
0	16456	15.531477491593	2
0	16465	15.535187035036	3
0	16477	15.543691035036	2
0	16477	15.543691035036	3
0	16485	15.552195035036	2
0	16485	15.552195035036	3
0	16498	15.560699035036	2
0	16498	15.560699035036	3
0	16511	15.569203035036	2
0	16511	15.569203035036	3
0	16520	15.577707035036	2
0	16530	15.586892290518	3
0	16534	15.595396290518	2
0	16543	15.603433290461	3
0	16547	15.611937290461	2
0	16557	15.622366664431	3
0	16564	15.630870664431	2
0	16564	15.630870664431	3
0	16572	15.639374664431	2
0	16582	15.646019198606	3
0	16586	15.654523198606	2
0	16595	15.655570565834	3
0	16602	15.664074565834	2
0	16602	15.664074565834	3
0	16611	15.672578565834	2
0	16621	15.676756463732	3
0	16637	15.685260463732	2
0	16637	15.685260463732	3
0	16645	15.693764463732	2
0	16645	15.693764463732	3
0	16654	15.702268463732	2
0	16654	15.702268463732	3
0	16663	15.710772463732	2
0	16674	15.731345067869	3
0	16689	15.739849067869	2
0	16689	15.739849067869	3
0	16705	15.748353067869	2
0	16705	15.748353067869	3
0	16714	15.756857067869	2
0	16714	15.756857067869	3
0	16723	15.765361067869	2
0	16723	15.765361067869	3
0	16732	15.773865067869	2
0	16732	15.773865067869	3
0	16741	15.782369067869	2
0	16750	15.783264808076	3
0	16754	15.791768808076	2
0	16765	15.805648705131	3
0	16776	15.814152705131	2
0	16776	15.814152705131	3
0	16784	15.822656705131	2
0	16784	15.822656705131	3
0	16793	15.831160705131	2
0	16803	15.833076215436	3
0	16807	15.841580215436	2
0	16816	15.846040869973	3
0	16824	15.854544869973	2
0	16824	15.854544869973	3
0	16832	15.863048869973	2
0	16843	15.91449779671	3
0	16850	15.92300179671	2
0	16850	15.92300179671	3
0	16858	15.93150579671	2
0	16868	15.939984448207	3
0	16876	15.948488448207	2
0	16876	15.948488448207	3
0	16888	15.956992448207	2
0	16888	15.956992448207	3
0	16897	15.965496448207	2
0	16907	15.970069014515	3
0	16911	15.978573014515	2
0	16920	15.983649151328	3
0	16924	15.992153151328	2
0	16934	16.016990380827	3
0	16937	16.025494380827	2
0	16946	16.028637453625	3
0	16954	16.037141453625	2
0	16954	16.037141453625	3
0	16962	16.045645453625	2
0	16973	16.055759935022	3
0	16976	16.064263935022	2
0	16985	16.073352068143	3
0	16989	16.081856068143	2
0	16998	16.088284209077	3
0	17010	16.096788209077	2
0	17010	16.096788209077	3
0	17022	16.105292209077	2
0	17022	16.105292209077	3
0	17031	16.113796209077	2
0	17031	16.113796209077	3
0	17044	16.122300209077	2
0	17044	16.122300209077	3
0	17053	16.130804209077	2
0	17063	16.132374542561	3
0	17067	16.140878542561	2
0	17077	16.158129479976	3
0	17080	16.166633479976	2
0	17090	16.198910932372	3
0	17093	16.207414932372	2
0	17102	16.216797337903	3
0	17106	16.225301337903	2
0	17116	16.27866475604	3
0	17119	16.28716875604	2
0	17128	16.29011172912	3
0	17144	16.29861572912	2
0	17144	16.29861572912	3
0	17152	16.30711972912	2
0	17152	16.30711972912	3
0	17161	16.31562372912	2
0	17161	16.31562372912	3
0	17174	16.32412772912	2
0	17174	16.32412772912	3
0	17183	16.33263172912	2
0	17193	16.34070485929	3
0	17197	16.34920885929	2
0	17207	16.379577636725	3
0	17218	16.388081636725	2
0	17218	16.388081636725	3
0	17226	16.396585636725	2
0	17226	16.396585636725	3
0	17235	16.405089636725	2
0	17245	16.410274186427	3
0	17253	16.418778186427	2
0	17253	16.418778186427	3
0	17265	16.427282186427	2
0	17265	16.427282186427	3
0	17274	16.435786186427	2
0	17285	16.47294703395	3
0	17292	16.48145103395	2
0	17292	16.48145103395	3
0	17300	16.48995503395	2
0	17310	16.492240667303	3
0	17318	16.500744667303	2
0	17318	16.500744667303	3
0	17326	16.509248667303	2
0	17336	16.515930466867	3
0	17340	16.524434466867	2
0	17349	16.524932531916	3
0	17360	16.533436531916	2
0	17360	16.533436531916	3
0	17373	16.541940531916	2
0	17373	16.541940531916	3
0	17386	16.550444531916	2
0	17386	16.550444531916	3
0	17395	16.558948531916	2
0	17395	16.558948531916	3
0	17408	16.567452531916	2
0	17408	16.567452531916	3
0	17417	16.575956531916	2
0	17428	16.59503935213	3
0	17431	16.60354335213	2
0	17440	16.609252821322	3
0	17444	16.617756821322	2
0	17453	16.627487595274	3
0	17465	16.635991595274	2
0	17465	16.635991595274	3
0	17477	16.644495595274	2
0	17477	16.644495595274	3
0	17486	16.652999595274	2
0	17486	16.652999595274	3
0	17503	16.661503595274	2
0	17503	16.661503595274	3
0	17520	16.670007595274	2
0	17520	16.670007595274	3
0	17529	16.678511595274	2
0	17529	16.678511595274	3
0	17538	16.687015595274	2
0	17538	16.687015595274	3
0	17551	16.695519595274	2
0	17551	16.695519595274	3
0	17572	16.704023595274	2
0	17572	16.704023595274	3
0	17585	16.712527595274	2
0	17585	16.712527595274	3
0	17594	16.721031595274	2
0	17594	16.721031595274	3
0	17607	16.729535595274	2
0	17607	16.729535595274	3
0	17616	16.738039595274	2
0	17616	16.738039595274	3
0	17629	16.746543595274	2
0	17629	16.746543595274	3
0	17642	16.755047595274	2
0	17642	16.755047595274	3
0	17651	16.763551595274	2
0	17661	16.770979525943	3
0	17669	16.779483525943	2
0	17669	16.779483525943	3
0	17681	16.787987525943	2
0	17681	16.787987525943	3
0	17694	16.796491525943	2
0	17694	16.796491525943	3
0	17703	16.804995525943	2
0	17713	16.810131126008	3
0	17717	16.818635126008	2
0	17727	16.847853721011	3
0	17734	16.856357721011	2
0	17734	16.856357721011	3
0	17742	16.864861721011	2
0	17752	16.870679093127	3
0	17756	16.879183093127	2
0	17765	16.883623769676	3
0	17769	16.892127769676	2
0	17778	16.894040574736	3
0	17782	16.902544574736	2
0	17791	16.91193402333	3
0	17795	16.92043802333	2
0	17805	16.946529824366	3
0	17816	16.955033824366	2
0	17816	16.955033824366	3
0	17824	16.963537824366	2
0	17824	16.963537824366	3
0	17841	16.972041824366	2
0	17841	16.972041824366	3
0	17858	16.980545824366	2
0	17858	16.980545824366	3
0	17871	16.989049824366	2
0	17871	16.989049824366	3
0	17888	16.997553824366	2
0	17888	16.997553824366	3
0	17897	17.006057824366	2
0	17897	17.006057824366	3
0	17906	17.014561824366	2
0	17906	17.014561824366	3
0	17919	17.023065824366	2
0	17919	17.023065824366	3
0	17932	17.031569824366	2
0	17932	17.031569824366	3
0	17945	17.040073824366	2
0	17945	17.040073824366	3
0	17958	17.048577824366	2
0	17958	17.048577824366	3
0	17967	17.057081824366	2
0	17967	17.057081824366	3
0	17984	17.065585824366	2
0	17984	17.065585824366	3
0	18005	17.074089824366	2
0	18005	17.074089824366	3
0	18018	17.082593824366	2
0	18018	17.082593824366	3
0	18031	17.091097824366	2
0	18031	17.091097824366	3
0	18040	17.099601824366	2
0	18040	17.099601824366	3
0	18049	17.108105824366	2
0	18049	17.108105824366	3
0	18058	17.116609824366	2
0	18058	17.116609824366	3
0	18071	17.125113824366	2
0	18071	17.125113824366	3
0	18080	17.133617824366	2
0	18091	17.165344743777	3
0	18094	17.173848743777	2
0	18103	17.176959727879	3
0	18107	17.185463727879	2
0	18116	17.188491961638	3
0	18120	17.196995961638	2
0	18130	17.239195164456	3
0	18133	17.247699164456	2
0	18143	17.265389681026	3
0	18146	17.273893681026	2
0	18155	17.282771290777	3
0	18163	17.291275290777	2
0	18163	17.291275290777	3
0	18179	17.299779290777	2
0	18179	17.299779290777	3
0	18192	17.308283290777	2
0	18192	17.308283290777	3
0	18201	17.316787290777	2
0	18201	17.316787290777	3
0	18210	17.325291290777	2
0	18221	17.359168993052	3
0	18224	17.367672993052	2
0	18234	17.388354616351	3
0	18245	17.396858616351	2
0	18245	17.396858616351	3
0	18253	17.405362616351	2
0	18253	17.405362616351	3
0	18262	17.413866616351	2
0	18272	17.417640931295	3
0	18276	17.426144931295	2
0	18285	17.426885680229	3
0	18292	17.435389680229	2
0	18292	17.435389680229	3
0	18305	17.443893680229	2
0	18305	17.443893680229	3
0	18314	17.452397680229	2
0	18324	17.455405209658	3
0	18340	17.463909209658	2
0	18340	17.463909209658	3
0	18360	17.472413209658	2
0	18360	17.472413209658	3
0	18369	17.480917209658	2
0	18369	17.480917209658	3
0	18394	17.489421209658	2
0	18394	17.489421209658	3
0	18411	17.497925209658	2
0	18411	17.497925209658	3
0	18424	17.506429209658	2
0	18424	17.506429209658	3
0	18433	17.514933209658	2
0	18433	17.514933209658	3
0	18446	17.523437209658	2
0	18446	17.523437209658	3
0	18455	17.531941209658	2
0	18455	17.531941209658	3
0	18464	17.540445209658	2
0	18464	17.540445209658	3
0	18473	17.548949209658	2
0	18473	17.548949209658	3
0	18482	17.557453209658	2
0	18482	17.557453209658	3
0	18491	17.565957209658	2
0	18491	17.565957209658	3
0	18500	17.574461209658	2
0	18500	17.574461209658	3
0	18509	17.582965209658	2
0	18519	17.589664708127	3
0	18523	17.598168708127	2
0	18532	17.59882697533	3
0	18535	17.60733097533	2
0	18546	17.633459336445	3
0	18557	17.641963336445	2
0	18557	17.641963336445	3
0	18569	17.650467336445	2
0	18569	17.650467336445	3
0	18582	17.658971336445	2
0	18582	17.658971336445	3
0	18595	17.667475336445	2
0	18595	17.667475336445	3
0	18608	17.675979336445	2
0	18608	17.675979336445	3
0	18621	17.684483336445	2
0	18621	17.684483336445	3
0	18630	17.692987336445	2
0	18630	17.692987336445	3
0	18639	17.701491336445	2
0	18650	17.712646049883	3
0	18653	17.721150049883	2
0	18663	17.738575412408	3
0	18666	17.747079412408	2
0	18675	17.753102451577	3
0	18683	17.761606451577	2
0	18683	17.761606451577	3
0	18699	17.770110451577	2
0	18699	17.770110451577	3
0	18708	17.778614451577	2
0	18708	17.778614451577	3
0	18721	17.787118451577	2
0	18721	17.787118451577	3
0	18738	17.795622451577	2
0	18738	17.795622451577	3
0	18747	17.804126451577	2
0	18747	17.804126451577	3
0	18756	17.812630451577	2
0	18766	17.817524717539	3
0	18770	17.826028717539	2
0	18779	17.832339997053	3
0	18783	17.840843997053	2
0	18792	17.843802759441	3
0	18796	17.852306759441	2
0	18806	17.862674183292	3
0	18809	17.871178183292	2
0	18819	17.884342977464	3
0	18826	17.892846977464	2
0	18826	17.892846977464	3
0	18834	17.901350977464	2
0	18845	17.917832764971	3
0	18848	17.926336764971	2
0	18858	17.947616035484	3
0	18865	17.956120035484	2
0	18865	17.956120035484	3
0	18877	17.964624035484	2
0	18877	17.964624035484	3
0	18890	17.973128035484	2
0	18890	17.973128035484	3
0	18903	17.981632035484	2
0	18903	17.981632035484	3
0	18912	17.990136035484	2
0	18923	18.014182767162	3
0	18930	18.022686767162	2
0	18930	18.022686767162	3
0	18938	18.031190767162	2
0	18949	18.067756967213	3
0	18952	18.076260967213	2
0	18962	18.095646499436	3
0	18969	18.104150499436	2
0	18969	18.104150499436	3
0	18977	18.112654499436	2
0	18988	18.123421374774	3
0	18991	18.131925374774	2
0	19000	18.141007867353	3
0	19004	18.149511867353	2
0	19013	18.154602398472	3
0	19025	18.163106398472	2
0	19025	18.163106398472	3
0	19033	18.171610398472	2
0	19033	18.171610398472	3
0	19046	18.180114398472	2
0	19046	18.180114398472	3
0	19055	18.188618398472	2
0	19065	18.197427728398	3
0	19073	18.205931728398	2
0	19073	18.205931728398	3
0	19085	18.214435728398	2
0	19085	18.214435728398	3
0	19098	18.222939728398	2
0	19098	18.222939728398	3
0	19107	18.231443728398	2
0	19118	18.244401254609	3
0	19125	18.252905254609	2
0	19125	18.252905254609	3
0	19137	18.261409254609	2
0	19137	18.261409254609	3
0	19154	18.269913254609	2
0	19154	18.269913254609	3
0	19163	18.278417254609	2
0	19163	18.278417254609	3
0	19176	18.286921254609	2
0	19176	18.286921254609	3
0	19185	18.295425254609	2
0	19195	18.303534344759	3
0	19211	18.312038344759	2
0	19211	18.312038344759	3
0	19219	18.320542344759	2
0	19219	18.320542344759	3
0	19228	18.329046344759	2
0	19228	18.329046344759	3
0	19237	18.337550344759	2
0	19247	18.346481120491	3
0	19251	18.354985120491	2
0	19260	18.359682559216	3
0	19264	18.368186559216	2
0	19274	18.399640389274	3
0	19277	18.408144389274	2
0	19286	18.408738872919	3
0	19289	18.417242872919	2
0	19300	18.428176885407	3
0	19307	18.436680885407	2
0	19307	18.436680885407	3
0	19323	18.445184885407	2
0	19323	18.445184885407	3
0	19332	18.453688885407	2
0	19332	18.453688885407	3
0	19345	18.462192885407	2
0	19345	18.462192885407	3
0	19358	18.470696885407	2
0	19358	18.470696885407	3
0	19367	18.479200885407	2
0	19378	18.490639631311	3
0	19381	18.499143631311	2
0	19391	18.539729745173	3
0	19414	18.548233745173	2
0	19414	18.548233745173	3
0	19426	18.556737745173	2
0	19426	18.556737745173	3
0	19435	18.565241745173	2
0	19435	18.565241745173	3
0	19444	18.573745745173	2
0	19444	18.573745745173	3
0	19461	18.582249745173	2
0	19461	18.582249745173	3
0	19474	18.590753745173	2
0	19474	18.590753745173	3
0	19483	18.599257745173	2
0	19483	18.599257745173	3
0	19492	18.607761745173	2
0	19492	18.607761745173	3
0	19501	18.616265745173	2
0	19501	18.616265745173	3
0	19514	18.624769745173	2
0	19514	18.624769745173	3
0	19527	18.633273745173	2
0	19527	18.633273745173	3
[...]
19	15106	14.072050204731	1160
19	15118	14.080554204731	1161
19	15131	14.089058204731	1162
19	15140	14.097562204731	1163
19	15153	14.106066204731	1164
19	15160	14.114570204731	1165
19	15180	14.141233725064	1166
19	15192	14.149737725064	1167
19	15205	14.158241725064	1168
19	15218	14.166745725064	1169
19	15225	14.175249725064	1170
19	15239	14.219550326644	1171
19	15258	14.233891682581	1172
19	15270	14.242395682581	1173
19	15277	14.250899682581	1174
19	15297	14.278212554311	1175
19	15303	14.286716554311	1176
19	15316	14.2952474617	1177
19	15330	14.326394038972	1178
19	15349	14.339505562924	1179
19	15365	14.348009562924	1180
19	15374	14.356513562924	1181
19	15387	14.365017562924	1182
19	15400	14.373521562924	1183
19	15407	14.382025562924	1184
19	15421	14.413141427737	1185
19	15434	14.437337758764	1186
19	15447	14.457661428711	1187
19	15466	14.48675180176	1188
19	15482	14.49525580176	1189
19	15495	14.50375980176	1190
19	15504	14.51226380176	1191
19	15521	14.52076780176	1192
19	15538	14.52927180176	1193
19	15551	14.53777580176	1194
19	15560	14.54627980176	1195
19	15569	14.55478380176	1196
19	15576	14.56328780176	1197
19	15590	14.574044037071	1198
19	15603	14.60034354486	1199
19	15616	14.623963558142	1200
19	15635	14.636664715843	1201
19	15647	14.645168715843	1202
19	15654	14.653672715843	1203
19	15674	14.671543985198	1204
19	15680	14.680047985198	1205
19	15700	14.692167718769	1206
19	15706	14.700671718769	1207
19	15720	14.713013663464	1208
19	15739	14.732789551097	1209
19	15751	14.741293551097	1210
19	15772	14.749797551097	1211
19	15781	14.758301551097	1212
19	15790	14.766805551097	1213
19	15803	14.775309551097	1214
19	15816	14.783813551097	1215
19	15823	14.792317551097	1216
19	15837	14.834559277937	1217
19	15850	14.882934215024	1218
19	15869	14.941918648977	1219
19	15875	14.950422648977	1220
19	15895	14.976850912369	1221
19	15907	14.985354912369	1222
19	15914	14.993858912369	1223
19	15934	15.004567515651	1224
19	15954	15.013071515651	1225
19	15975	15.021575515651	1226
19	15988	15.030079515651	1227
19	15997	15.038583515651	1228
19	16018	15.047087515651	1229
19	16039	15.055591515651	1230
19	16048	15.064095515651	1231
19	16057	15.072599515651	1232
19	16066	15.081103515651	1233
19	16075	15.089607515651	1234
19	16092	15.098111515651	1235
19	16101	15.106615515651	1236
19	16110	15.115119515651	1237
19	16123	15.123623515651	1238
19	16136	15.132127515651	1239
19	16149	15.140631515651	1240
19	16162	15.149135515651	1241
19	16171	15.157639515651	1242
19	16180	15.166143515651	1243
19	16187	15.174647515651	1244
19	16207	15.195844758942	1245
19	16213	15.204348758942	1246
19	16227	15.219881771371	1247
19	16245	15.229605876985	1248
19	16252	15.238109876985	1249
19	16266	15.272986783671	1250
19	16289	15.28393185771	1251
19	16297	15.29243585771	1252
19	16304	15.30093985771	1253
19	16317	15.310193139362	1254
19	16331	15.324393265023	1255
19	16350	15.354165244335	1256
19	16356	15.362669244335	1257
19	16376	15.374803833297	1258
19	16382	15.383307833297	1259
19	16395	15.392424097103	1260
19	16409	15.429649663993	1261
19	16422	15.476173191235	1262
19	16441	15.499903694503	1263
19	16447	15.508407694503	1264
19	16461	15.531481288416	1265
19	16484	15.543694831859	1266
19	16492	15.552198831859	1267
19	16505	15.560702831859	1268
19	16518	15.569206831859	1269
19	16525	15.577710831859	1270
19	16539	15.595400087341	1271
19	16552	15.611941087284	1272
19	16571	15.630874461254	1273
19	16577	15.639378461254	1274
19	16591	15.654526995429	1275
19	16609	15.664078362657	1276
19	16616	15.672582362657	1277
19	16644	15.685264260555	1278
19	16652	15.693768260555	1279
19	16661	15.702272260555	1280
19	16668	15.710776260555	1281
19	16696	15.739852864692	1282
19	16712	15.748356864692	1283
19	16721	15.756860864692	1284
19	16730	15.765364864692	1285
19	16739	15.773868864692	1286
19	16746	15.782372864692	1287
19	16759	15.791772604899	1288
19	16783	15.814156501954	1289
19	16791	15.822660501954	1290
19	16798	15.831164501954	1291
19	16812	15.841584012259	1292
19	16831	15.854548666796	1293
19	16837	15.863052666796	1294
19	16857	15.923005593533	1295
19	16863	15.931509593533	1296
19	16883	15.94849224503	1297
19	16895	15.95699624503	1298
19	16902	15.96550024503	1299
19	16916	15.978576811338	1300
19	16929	15.992156948151	1301
19	16942	16.02549817765	1302
19	16961	16.037145250448	1303
19	16967	16.045649250448	1304
19	16981	16.064267731845	1305
19	16994	16.081859864966	1306
19	17017	16.0967920059	1307
19	17029	16.1052960059	1308
19	17038	16.1138000059	1309
19	17051	16.1223040059	1310
19	17058	16.1308080059	1311
19	17072	16.140882339384	1312
19	17085	16.166637276799	1313
19	17098	16.207418729195	1314
19	17111	16.225305134726	1315
19	17124	16.287172552863	1316
19	17151	16.298619525943	1317
19	17159	16.307123525943	1318
19	17168	16.315627525943	1319
19	17181	16.324131525943	1320
19	17188	16.332635525943	1321
19	17202	16.349212656113	1322
19	17225	16.388085433548	1323
19	17233	16.396589433548	1324
19	17240	16.405093433548	1325
19	17260	16.41878198325	1326
19	17272	16.42728598325	1327
19	17279	16.43578998325	1328
19	17299	16.481454830773	1329
19	17305	16.489958830773	1330
19	17325	16.500748464126	1331
19	17331	16.509252464126	1332
19	17345	16.52443826369	1333
19	17367	16.533440328739	1334
19	17380	16.541944328739	1335
19	17393	16.550448328739	1336
19	17402	16.558952328739	1337
19	17415	16.567456328739	1338
19	17422	16.575960328739	1339
19	17436	16.603547148953	1340
19	17449	16.617760618145	1341
19	17472	16.635995392097	1342
19	17484	16.644499392097	1343
19	17493	16.653003392097	1344
19	17510	16.661507392097	1345
19	17527	16.670011392097	1346
19	17536	16.678515392097	1347
19	17545	16.687019392097	1348
19	17558	16.695523392097	1349
19	17579	16.704027392097	1350
19	17592	16.712531392097	1351
19	17601	16.721035392097	1352
19	17614	16.729539392097	1353
19	17623	16.738043392097	1354
19	17636	16.746547392097	1355
19	17649	16.755051392097	1356
19	17656	16.763555392097	1357
19	17676	16.779487322766	1358
19	17688	16.787991322766	1359
19	17701	16.796495322766	1360
19	17708	16.804999322766	1361
19	17722	16.818638922831	1362
19	17741	16.856361517834	1363
19	17747	16.864865517834	1364
19	17761	16.87918688995	1365
19	17774	16.892131566499	1366
19	17787	16.902548371559	1367
19	17800	16.920441820153	1368
19	17823	16.955037621189	1369
19	17831	16.963541621189	1370
19	17848	16.972045621189	1371
19	17865	16.980549621189	1372
19	17878	16.989053621189	1373
19	17895	16.997557621189	1374
19	17904	17.006061621189	1375
19	17913	17.014565621189	1376
19	17926	17.023069621189	1377
19	17939	17.031573621189	1378
19	17952	17.040077621189	1379
19	17965	17.048581621189	1380
19	17974	17.057085621189	1381
19	17991	17.065589621189	1382
19	18012	17.074093621189	1383
19	18025	17.082597621189	1384
19	18038	17.091101621189	1385
19	18047	17.099605621189	1386
19	18056	17.108109621189	1387
19	18065	17.116613621189	1388
19	18078	17.125117621189	1389
19	18085	17.133621621189	1390
19	18099	17.1738525406	1391
19	18112	17.185467524702	1392
19	18125	17.196999758461	1393
19	18138	17.247702961279	1394
19	18151	17.273897477849	1395
19	18170	17.2912790876	1396
19	18186	17.2997830876	1397
19	18199	17.3082870876	1398
19	18208	17.3167910876	1399
19	18215	17.3252950876	1400
19	18229	17.367676789875	1401
19	18252	17.396862413174	1402
19	18260	17.405366413174	1403
19	18267	17.413870413174	1404
19	18281	17.426148728118	1405
19	18299	17.435393477052	1406
19	18312	17.443897477052	1407
19	18319	17.452401477052	1408
19	18347	17.463913006481	1409
19	18367	17.472417006481	1410
19	18376	17.480921006481	1411
19	18401	17.489425006481	1412
19	18418	17.497929006481	1413
19	18431	17.506433006481	1414
19	18440	17.514937006481	1415
19	18453	17.523441006481	1416
19	18462	17.531945006481	1417
19	18471	17.540449006481	1418
19	18480	17.548953006481	1419
19	18489	17.557457006481	1420
19	18498	17.565961006481	1421
19	18507	17.574465006481	1422
19	18514	17.582969006481	1423
19	18528	17.59817250495	1424
19	18540	17.607334772153	1425
19	18564	17.641967133268	1426
19	18576	17.650471133268	1427
19	18589	17.658975133268	1428
19	18602	17.667479133268	1429
19	18615	17.675983133268	1430
19	18628	17.684487133268	1431
19	18637	17.692991133268	1432
19	18644	17.701495133268	1433
19	18658	17.721153846706	1434
19	18671	17.747083209231	1435
19	18690	17.7616102484	1436
19	18706	17.7701142484	1437
19	18715	17.7786182484	1438
19	18728	17.7871222484	1439
19	18745	17.7956262484	1440
19	18754	17.8041302484	1441
19	18761	17.8126342484	1442
19	18775	17.826032514362	1443
19	18788	17.840847793876	1444
19	18801	17.852310556264	1445
19	18814	17.871181980115	1446
19	18833	17.892850774287	1447
19	18839	17.901354774287	1448
19	18853	17.926340561794	1449
19	18872	17.956123832307	1450
19	18884	17.964627832307	1451
19	18897	17.973131832307	1452
19	18910	17.981635832307	1453
19	18917	17.990139832307	1454
19	18937	18.022690563985	1455
19	18943	18.031194563985	1456
19	18957	18.076264764036	1457
19	18976	18.104154296259	1458
19	18982	18.112658296259	1459
19	18996	18.131929171597	1460
19	19009	18.149515664176	1461
19	19032	18.163110195295	1462
19	19040	18.171614195295	1463
19	19053	18.180118195295	1464
19	19060	18.188622195295	1465
19	19080	18.205935525221	1466
19	19092	18.214439525221	1467
19	19105	18.222943525221	1468
19	19112	18.231447525221	1469
19	19132	18.252909051432	1470
19	19144	18.261413051432	1471
19	19161	18.269917051432	1472
19	19170	18.278421051432	1473
19	19183	18.286925051432	1474
19	19190	18.295429051432	1475
19	19218	18.312042141582	1476
19	19226	18.320546141582	1477
19	19235	18.329050141582	1478
19	19242	18.337554141582	1479
19	19256	18.354988917314	1480
19	19269	18.368190356039	1481
19	19282	18.408148186097	1482
19	19294	18.417246669742	1483
19	19314	18.43668468223	1484
19	19330	18.44518868223	1485
19	19339	18.45369268223	1486
19	19352	18.46219668223	1487
19	19365	18.47070068223	1488
19	19372	18.47920468223	1489
19	19386	18.499147428134	1490
19	19421	18.548237541996	1491
19	19433	18.556741541996	1492
19	19442	18.565245541996	1493
19	19451	18.573749541996	1494
19	19468	18.582253541996	1495
19	19481	18.590757541996	1496
19	19490	18.599261541996	1497
19	19499	18.607765541996	1498
19	19508	18.616269541996	1499
19	19521	18.624773541996	1500
19	19534	18.633277541996	1501
19	19541	18.641781541996	1502
19	19555	18.660542406984	1503
19	19567	18.670151034376	1504
19	19581	18.717378503365	1505
19	19604	18.728038588021	1506
19	19616	18.736542588021	1507
19	19629	18.745046588021	1508
19	19638	18.753550588021	1509
19	19651	18.762054588021	1510
19	19664	18.770558588021	1511
19	19677	18.779062588021	1512
19	19684	18.787566588021	1513
19	19704	18.80621369238	1514
19	19710	18.81471769238	1515
19	19724	18.857307605985	1516
19	19737	18.869893699935	1517
19	19750	18.895437085888	1518
19	19762	18.905178570594	1519
19	19776	18.921417673063	1520
19	19789	18.939082204412	1521
19	19808	18.967746245955	1522
19	19820	18.976250245955	1523
19	19833	18.984754245955	1524
19	19840	18.993258245955	1525
19	19860	19.017009999477	1526
19	19866	19.025513999477	1527
19	19880	19.066939871976	1528
19	19899	19.091936575677	1529
19	19911	19.100440575677	1530
19	19924	19.108944575677	1531
19	19931	19.117448575677	1532
19	19945	19.13221111256	1533
19	19958	19.160647884091	1534
19	19977	19.179953067862	1535
19	19989	19.188457067862	1536
19	19996	19.196961067862	1537
19	20020	19.20722160097	1538
19	20036	19.21572560097	1539
19	20045	19.22422960097	1540
19	20054	19.23273360097	1541
19	20067	19.24123760097	1542
19	20080	19.24974160097	1543
19	20093	19.25824560097	1544
19	20100	19.26674960097	1545
19	20114	19.285941551143	1546
19	20127	19.305551141818	1547
19	20140	19.382470444524	1548
19	20163	19.405022409512	1549
19	20171	19.413526409512	1550
19	20178	19.422030409512	1551
19	20202	19.435120826168	1552
19	20210	19.443624826168	1553
19	20217	19.452128826168	1554
19	20231	19.471304149852	1555
19	20244	19.510162834708	1556
19	20257	19.522441484141	1557
19	20276	19.536443470475	1558
19	20288	19.544947470475	1559
19	20309	19.553451470475	1560
19	20326	19.561955470475	1561
19	20339	19.570459470475	1562
19	20352	19.578963470475	1563
19	20361	19.587467470475	1564
19	20374	19.595971470475	1565
19	20399	19.604475470475	1566
19	20412	19.612979470475	1567
19	20421	19.621483470475	1568
19	20434	19.629987470475	1569
19	20447	19.638491470475	1570
19	20456	19.646995470475	1571
19	20469	19.655499470475	1572
19	20478	19.664003470475	1573
19	20491	19.672507470475	1574
19	20500	19.681011470475	1575
19	20509	19.689515470475	1576
19	20522	19.698019470475	1577
19	20529	19.706523470475	1578
19	20543	19.717910505437	1579
19	20556	19.764275540113	1580
19	20569	19.791766408776	1581
19	20582	19.802369885898	1582
19	20601	19.813015262334	1583
19	20607	19.821519262334	1584
19	20627	19.891675665631	1585
19	20633	19.900179665631	1586
19	20646	19.909549487071	1587
19	20670	19.930194939856	1588
19	20682	19.938698939856	1589
19	20691	19.947202939856	1590
19	20708	19.955706939856	1591
19	20717	19.964210939856	1592
19	20730	19.972714939856	1593
19	20737	19.981218939856	1594
20	87	0.1	400000
20	168	0.2	480000
20	237	0.3	480000
20	328	0.4	560000
20	471	0.5	880000
20	588	0.6	640000
20	709	0.7	720000
20	848	0.8	880000
20	953	0.9	640000
20	1095	1	880000
20	1255	1.1	960000
20	1380	1.2	880000
20	1465	1.3	480000
20	1543	1.4	480000
20	1650	1.5	640000
20	1803	1.6	960000
20	1888	1.7	560000
20	1920	1.8	160000
20	2028	1.9	640000
20	2109	2	560000
20	2230	2.1	640000
20	2369	2.2	960000
20	2486	2.3	720000
20	2637	2.4	800000
20	2742	2.5	720000
20	2856	2.6	720000
20	2941	2.7	560000
20	3071	2.8	720000
20	3223	2.9	960000
20	3341	3	720000
20	3428	3.1	560000
20	3512	3.2	560000
20	3565	3.3	320000
20	3657	3.4	480000
20	3752	3.5	640000
20	3851	3.6	640000
20	3933	3.7	400000
20	4089	3.8	960000
20	4240	3.9	880000
20	4400	4	960000
20	4544	4.1	960000
20	4688	4.2	960000
20	4774	4.3	560000
20	4884	4.4	640000
20	4943	4.5	400000
20	5030	4.6	480000
20	5160	4.7	800000
20	5251	4.8	560000
20	5411	4.9	960000
20	5521	5	720000
20	5624	5.1	640000
20	5733	5.2	640000
20	5801	5.3	480000
20	5850	5.4	240000
20	5950	5.5	640000
20	6086	5.6	880000
20	6152	5.7	400000
20	6201	5.8	240000
20	6300	5.9	640000
20	6391	6	560000
20	6542	6.1	960000
20	6664	6.2	720000
20	6807	6.3	880000
20	6954	6.4	880000
20	7055	6.5	640000
20	7175	6.6	720000
20	7283	6.7	720000
20	7348	6.8	400000
20	7397	6.9	240000
20	7510	7	720000
20	7626	7.1	720000
20	7718	7.2	560000
20	7774	7.3	320000
20	7919	7.4	960000
20	8030	7.5	640000
20	8076	7.6	320000
20	8142	7.7	320000
20	8263	7.8	800000
20	8329	7.9	400000
20	8440	8	640000
20	8556	8.1	800000
20	8692	8.2	800000
20	8826	8.3	800000
20	8953	8.4	800000
20	9119	8.5	880000
20	9271	8.6	960000
20	9394	8.7	880000
20	9459	8.8	400000
20	9619	8.9	960000
20	9719	9	640000
20	9827	9.1	640000
20	9922	9.2	640000
20	9961	9.3	240000
20	10077	9.4	720000
20	10190	9.5	560000
20	10318	9.6	880000
20	10461	9.7	880000
20	10532	9.8	480000
20	10672	9.9	800000
20	10805	10	880000
20	10919	10.1	640000
20	11027	10.2	720000
20	11127	10.3	560000
20	11232	10.4	640000
20	11322	10.5	560000
20	11442	10.6	800000
20	11540	10.7	560000
20	11656	10.8	720000
20	11768	10.9	640000
20	11859	11	640000
20	11976	11.1	720000
20	12093	11.2	640000
20	12236	11.3	880000
20	12366	11.4	800000
20	12496	11.5	800000
20	12619	11.6	800000
20	12645	11.7	160000
20	12730	11.8	560000
20	12814	11.9	480000
20	12944	12	800000
20	13073	12.1	800000
20	13211	12.2	800000
20	13308	12.3	640000
20	13372	12.4	400000
20	13462	12.5	480000
20	13600	12.6	960000
20	13717	12.7	720000
20	13871	12.8	880000
20	13978	12.9	720000
20	14056	13	480000
20	14152	13.1	560000
20	14238	13.2	560000
20	14329	13.3	560000
20	14424	13.4	480000
20	14550	13.5	880000
20	14602	13.6	320000
20	14654	13.7	240000
20	14745	13.8	640000
20	14892	13.9	800000
20	15024	14	880000
20	15153	14.1	800000
20	15239	14.2	560000
20	15330	14.3	560000
20	15421	14.4	560000
20	15495	14.5	400000
20	15603	14.6	720000
20	15706	14.7	640000
20	15837	14.8	800000
20	15869	14.9	160000
20	15934	15	400000
20	16101	15.1	960000
20	16213	15.2	800000
20	16304	15.3	560000
20	16409	15.4	640000
20	16447	15.5	240000
20	16552	15.6	640000
20	16661	15.7	640000
20	16783	15.8	720000
20	16857	15.9	480000
20	16942	16	560000
20	17029	16.1	480000
20	17098	16.2	480000
20	17159	16.3	320000
20	17240	16.4	560000
20	17325	16.5	480000
20	17436	16.6	720000
20	17579	16.7	800000
20	17708	16.8	880000
20	17787	16.9	480000
20	17904	17	640000
20	18056	17.1	960000
20	18138	17.2	560000
20	18199	17.3	320000
20	18260	17.4	400000
20	18431	17.5	880000
20	18540	17.6	880000
20	18644	17.7	640000
20	18754	17.8	640000
20	18839	17.9	560000
20	18937	18	560000
20	18976	18.1	240000
20	19080	18.2	640000
20	19218	18.3	800000
20	19282	18.4	480000
20	19421	18.5	720000
20	19499	18.6	560000
20	19581	18.7	560000
20	19704	18.8	720000
20	19762	18.9	400000
20	19860	19	560000
20	19911	19.1	320000
20	20020	19.2	640000
20	20127	19.3	720000
20	20163	19.4	160000
20	20244	19.5	560000
20	20399	19.6	800000
20	20529	19.7	960000
20	20582	19.8	320000
20	20633	19.9	320000
20	20746	20	720000
21	20746	0.1	0
21	20746	0.2	0
21	20746	0.3	0
21	20746	0.4	0
21	20746	0.5	0
21	20746	0.6	0
21	20746	0.7	0
21	20746	0.8	0
21	20746	0.9	0
21	20746	1	0
21	20746	1.1	0
21	20746	1.2	0
21	20746	1.3	0
21	20746	1.4	0
21	20746	1.5	0
21	20746	1.6	0
21	20746	1.7	0
21	20746	1.8	0
21	20746	1.9	0
21	20746	2	0
21	20746	2.1	0
21	20746	2.2	0
21	20746	2.3	0
21	20746	2.4	0
21	20746	2.5	0
21	20746	2.6	0
21	20746	2.7	0
21	20746	2.8	0
21	20746	2.9	0
21	20746	3	0
21	20746	3.1	0
21	20746	3.2	0
21	20746	3.3	0
21	20746	3.4	0
21	20746	3.5	0
21	20746	3.6	0
21	20746	3.7	0
21	20746	3.8	0
21	20746	3.9	0
21	20746	4	0
21	20746	4.1	0
21	20746	4.2	0
21	20746	4.3	0
21	20746	4.4	0
21	20746	4.5	0
21	20746	4.6	0
21	20746	4.7	0
21	20746	4.8	0
21	20746	4.9	0
21	20746	5	0
21	20746	5.1	0
21	20746	5.2	0
21	20746	5.3	0
21	20746	5.4	0
21	20746	5.5	0
21	20746	5.6	0
21	20746	5.7	0
21	20746	5.8	0
21	20746	5.9	0
21	20746	6	0
21	20746	6.1	0
21	20746	6.2	0
21	20746	6.3	0
21	20746	6.4	0
21	20746	6.5	0
21	20746	6.6	0
21	20746	6.7	0
21	20746	6.8	0
21	20746	6.9	0
21	20746	7	0
21	20746	7.1	0
21	20746	7.2	0
21	20746	7.3	0
21	20746	7.4	0
21	20746	7.5	0
21	20746	7.6	0
21	20746	7.7	0
21	20746	7.8	0
21	20746	7.9	0
21	20746	8	0
21	20746	8.1	0
21	20746	8.2	0
21	20746	8.3	0
21	20746	8.4	0
21	20746	8.5	0
21	20746	8.6	0
21	20746	8.7	0
21	20746	8.8	0
21	20746	8.9	0
21	20746	9	0
21	20746	9.1	0
21	20746	9.2	0
21	20746	9.3	0
21	20746	9.4	0
21	20746	9.5	0
21	20746	9.6	0
21	20746	9.7	0
21	20746	9.8	0
21	20746	9.9	0
21	20746	10	0
21	20746	10.1	0
21	20746	10.2	0
21	20746	10.3	0
21	20746	10.4	0
21	20746	10.5	0
21	20746	10.6	0
21	20746	10.7	0
21	20746	10.8	0
21	20746	10.9	0
21	20746	11	0
21	20746	11.1	0
21	20746	11.2	0
21	20746	11.3	0
21	20746	11.4	0
21	20746	11.5	0
21	20746	11.6	0
21	20746	11.7	0
21	20746	11.8	0
21	20746	11.9	0
21	20746	12	0
21	20746	12.1	0
21	20746	12.2	0
21	20746	12.3	0
21	20746	12.4	0
21	20746	12.5	0
21	20746	12.6	0
21	20746	12.7	0
21	20746	12.8	0
21	20746	12.9	0
21	20746	13	0
21	20746	13.1	0
21	20746	13.2	0
21	20746	13.3	0
21	20746	13.4	0
21	20746	13.5	0
21	20746	13.6	0
21	20746	13.7	0
21	20746	13.8	0
21	20746	13.9	0
21	20746	14	0
21	20746	14.1	0
21	20746	14.2	0
21	20746	14.3	0
21	20746	14.4	0
21	20746	14.5	0
21	20746	14.6	0
21	20746	14.7	0
21	20746	14.8	0
21	20746	14.9	0
21	20746	15	0
21	20746	15.1	0
21	20746	15.2	0
21	20746	15.3	0
21	20746	15.4	0
21	20746	15.5	0
21	20746	15.6	0
21	20746	15.7	0
21	20746	15.8	0
21	20746	15.9	0
21	20746	16	0
21	20746	16.1	0
21	20746	16.2	0
21	20746	16.3	0
21	20746	16.4	0
21	20746	16.5	0
21	20746	16.6	0
21	20746	16.7	0
21	20746	16.8	0
21	20746	16.9	0
21	20746	17	0
21	20746	17.1	0
21	20746	17.2	0
21	20746	17.3	0
21	20746	17.4	0
21	20746	17.5	0
21	20746	17.6	0
21	20746	17.7	0
21	20746	17.8	0
21	20746	17.9	0
21	20746	18	0
21	20746	18.1	0
21	20746	18.2	0
21	20746	18.3	0
21	20746	18.4	0
21	20746	18.5	0
21	20746	18.6	0
21	20746	18.7	0
21	20746	18.8	0
21	20746	18.9	0
21	20746	19	0
21	20746	19.1	0
21	20746	19.2	0
21	20746	19.3	0
21	20746	19.4	0
21	20746	19.5	0
21	20746	19.6	0
21	20746	19.7	0
21	20746	19.8	0
21	20746	19.9	0
21	20746	20	0

